

                   BA3-SNPS Version 1.1 (BA3-SNPS)                  
                        Released: 07/11/2019                        
                          Steven Mussmann                           
         Department of Biological Sciences at U. of Arkansas        


                 Modified from BayesAss Version 3.0.4               
                            Bruce Rannala                           
           Department of Evolution and Ecology at UC Davis          


Please cite: Wilson & Rannala (2003). Bayesian Inference of recent  
migration rates using multilocus genotypes. Genetics 163:1177-1191. 


Please also cite: Mussmann, Douglas, Chafin, & Douglas (2019). BA3- 
SNPs: Contemporary migration reconfigured in BayesAss for next-     
generation sequence data. Methods in Ecology and Evolution.         


Made new Indiv object
Going to read input file
Setting alleles
1	0
Read input file

Input file: neosho.filtered.min4.str.immanc
Output file: NMT_fullrun_out3
Individuals: 183 Populations: 14 Loci: 4840 Missing genotypes: 0

Locus:(Number of Alleles)

locus0:3 locus1:2 locus2:3 locus3:3 locus4:3 locus5:3 locus6:3 locus7:3 locus8:2 locus9:3 
locus10:3 locus11:3 locus12:3 locus13:3 locus14:3 locus15:3 locus16:3 locus17:3 locus18:3 locus19:3 
locus20:3 locus21:3 locus22:3 locus23:3 locus24:3 locus25:2 locus26:3 locus27:3 locus28:3 locus29:3 
locus30:3 locus31:3 locus32:3 locus33:3 locus34:3 locus35:2 locus36:3 locus37:3 locus38:3 locus39:3 
locus40:3 locus41:3 locus42:2 locus43:3 locus44:3 locus45:2 locus46:3 locus47:3 locus48:2 locus49:3 
locus50:3 locus51:3 locus52:3 locus53:3 locus54:3 locus55:3 locus56:3 locus57:3 locus58:3 locus59:3 
locus60:3 locus61:3 locus62:3 locus63:3 locus64:3 locus65:3 locus66:3 locus67:3 locus68:3 locus69:3 
locus70:3 locus71:3 locus72:2 locus73:3 locus74:3 locus75:3 locus76:2 locus77:2 locus78:3 locus79:3 
locus80:3 locus81:3 locus82:3 locus83:3 locus84:3 locus85:3 locus86:3 locus87:3 locus88:3 locus89:3 
locus90:3 locus91:3 locus92:2 locus93:3 locus94:3 locus95:3 locus96:3 locus97:3 locus98:3 locus99:2 
locus100:2 locus101:3 locus102:3 locus103:3 locus104:3 locus105:3 locus106:3 locus107:2 locus108:3 locus109:3 
locus110:3 locus111:3 locus112:3 locus113:3 locus114:3 locus115:3 locus116:3 locus117:3 locus118:3 locus119:2 
locus120:2 locus121:3 locus122:3 locus123:3 locus124:3 locus125:2 locus126:3 locus127:3 locus128:3 locus129:3 
locus130:3 locus131:3 locus132:3 locus133:3 locus134:3 locus135:3 locus136:3 locus137:3 locus138:3 locus139:3 
locus140:3 locus141:3 locus142:3 locus143:3 locus144:3 locus145:3 locus146:3 locus147:3 locus148:3 locus149:3 
locus150:3 locus151:3 locus152:3 locus153:3 locus154:3 locus155:3 locus156:3 locus157:3 locus158:3 locus159:3 
locus160:3 locus161:3 locus162:3 locus163:3 locus164:3 locus165:3 locus166:2 locus167:2 locus168:3 locus169:2 
locus170:3 locus171:3 locus172:3 locus173:3 locus174:3 locus175:3 locus176:3 locus177:3 locus178:3 locus179:3 
locus180:3 locus181:3 locus182:3 locus183:3 locus184:3 locus185:3 locus186:3 locus187:2 locus188:3 locus189:3 
locus190:3 locus191:3 locus192:3 locus193:3 locus194:3 locus195:3 locus196:3 locus197:3 locus198:3 locus199:3 
locus200:3 locus201:3 locus202:3 locus203:3 locus204:3 locus205:3 locus206:3 locus207:2 locus208:3 locus209:3 
locus210:3 locus211:3 locus212:3 locus213:3 locus214:3 locus215:3 locus216:3 locus217:3 locus218:3 locus219:3 
locus220:3 locus221:3 locus222:2 locus223:2 locus224:3 locus225:3 locus226:2 locus227:3 locus228:3 locus229:3 
locus230:3 locus231:3 locus232:3 locus233:3 locus234:3 locus235:3 locus236:3 locus237:3 locus238:3 locus239:3 
locus240:3 locus241:2 locus242:3 locus243:2 locus244:3 locus245:2 locus246:3 locus247:3 locus248:3 locus249:3 
locus250:3 locus251:3 locus252:3 locus253:3 locus254:3 locus255:3 locus256:3 locus257:3 locus258:3 locus259:3 
locus260:3 locus261:3 locus262:3 locus263:3 locus264:3 locus265:3 locus266:3 locus267:3 locus268:3 locus269:2 
locus270:3 locus271:3 locus272:3 locus273:3 locus274:3 locus275:3 locus276:3 locus277:3 locus278:3 locus279:3 
locus280:2 locus281:2 locus282:3 locus283:3 locus284:3 locus285:3 locus286:3 locus287:3 locus288:3 locus289:3 
locus290:3 locus291:3 locus292:3 locus293:3 locus294:3 locus295:3 locus296:3 locus297:3 locus298:3 locus299:3 
locus300:3 locus301:3 locus302:3 locus303:2 locus304:3 locus305:3 locus306:3 locus307:3 locus308:3 locus309:3 
locus310:3 locus311:3 locus312:3 locus313:3 locus314:3 locus315:3 locus316:3 locus317:3 locus318:3 locus319:3 
locus320:2 locus321:3 locus322:3 locus323:3 locus324:3 locus325:3 locus326:3 locus327:3 locus328:3 locus329:3 
locus330:3 locus331:3 locus332:3 locus333:3 locus334:3 locus335:3 locus336:3 locus337:3 locus338:3 locus339:3 
locus340:3 locus341:3 locus342:3 locus343:3 locus344:3 locus345:3 locus346:3 locus347:2 locus348:3 locus349:3 
locus350:3 locus351:3 locus352:3 locus353:3 locus354:3 locus355:2 locus356:3 locus357:3 locus358:3 locus359:2 
locus360:3 locus361:3 locus362:3 locus363:3 locus364:2 locus365:3 locus366:2 locus367:3 locus368:3 locus369:3 
locus370:3 locus371:3 locus372:3 locus373:3 locus374:3 locus375:3 locus376:3 locus377:2 locus378:3 locus379:2 
locus380:3 locus381:3 locus382:3 locus383:2 locus384:3 locus385:3 locus386:3 locus387:3 locus388:3 locus389:3 
locus390:3 locus391:3 locus392:3 locus393:2 locus394:3 locus395:3 locus396:3 locus397:3 locus398:3 locus399:3 
locus400:3 locus401:3 locus402:3 locus403:3 locus404:3 locus405:3 locus406:3 locus407:3 locus408:3 locus409:3 
locus410:3 locus411:3 locus412:3 locus413:3 locus414:3 locus415:3 locus416:3 locus417:3 locus418:3 locus419:3 
locus420:3 locus421:3 locus422:3 locus423:3 locus424:3 locus425:3 locus426:3 locus427:3 locus428:3 locus429:3 
locus430:3 locus431:3 locus432:3 locus433:3 locus434:3 locus435:3 locus436:3 locus437:3 locus438:3 locus439:3 
locus440:3 locus441:3 locus442:3 locus443:3 locus444:3 locus445:3 locus446:2 locus447:3 locus448:3 locus449:3 
locus450:3 locus451:3 locus452:3 locus453:3 locus454:3 locus455:3 locus456:3 locus457:3 locus458:3 locus459:2 
locus460:3 locus461:3 locus462:2 locus463:3 locus464:3 locus465:2 locus466:3 locus467:3 locus468:3 locus469:3 
locus470:3 locus471:3 locus472:3 locus473:3 locus474:3 locus475:3 locus476:2 locus477:3 locus478:3 locus479:3 
locus480:3 locus481:3 locus482:3 locus483:3 locus484:3 locus485:3 locus486:3 locus487:2 locus488:3 locus489:3 
locus490:2 locus491:3 locus492:3 locus493:3 locus494:3 locus495:3 locus496:3 locus497:3 locus498:3 locus499:2 
locus500:3 locus501:2 locus502:3 locus503:3 locus504:2 locus505:3 locus506:2 locus507:3 locus508:3 locus509:3 
locus510:3 locus511:2 locus512:3 locus513:3 locus514:3 locus515:2 locus516:3 locus517:3 locus518:3 locus519:3 
locus520:3 locus521:3 locus522:3 locus523:3 locus524:3 locus525:3 locus526:3 locus527:3 locus528:3 locus529:3 
locus530:3 locus531:3 locus532:3 locus533:3 locus534:3 locus535:3 locus536:3 locus537:3 locus538:3 locus539:3 
locus540:3 locus541:3 locus542:3 locus543:2 locus544:3 locus545:3 locus546:3 locus547:3 locus548:3 locus549:3 
locus550:3 locus551:3 locus552:2 locus553:2 locus554:3 locus555:2 locus556:3 locus557:3 locus558:3 locus559:3 
locus560:3 locus561:3 locus562:3 locus563:3 locus564:3 locus565:3 locus566:3 locus567:3 locus568:3 locus569:3 
locus570:3 locus571:3 locus572:3 locus573:3 locus574:3 locus575:3 locus576:3 locus577:3 locus578:3 locus579:3 
locus580:2 locus581:3 locus582:3 locus583:3 locus584:3 locus585:3 locus586:3 locus587:3 locus588:3 locus589:3 
locus590:3 locus591:3 locus592:3 locus593:3 locus594:2 locus595:3 locus596:3 locus597:3 locus598:3 locus599:3 
locus600:3 locus601:3 locus602:3 locus603:3 locus604:3 locus605:3 locus606:3 locus607:3 locus608:3 locus609:3 
locus610:3 locus611:3 locus612:3 locus613:3 locus614:3 locus615:3 locus616:3 locus617:3 locus618:3 locus619:3 
locus620:3 locus621:3 locus622:3 locus623:3 locus624:3 locus625:3 locus626:2 locus627:3 locus628:3 locus629:3 
locus630:3 locus631:3 locus632:3 locus633:3 locus634:3 locus635:3 locus636:3 locus637:3 locus638:3 locus639:3 
locus640:3 locus641:3 locus642:3 locus643:3 locus644:2 locus645:3 locus646:3 locus647:3 locus648:3 locus649:3 
locus650:3 locus651:2 locus652:3 locus653:3 locus654:3 locus655:2 locus656:3 locus657:3 locus658:3 locus659:3 
locus660:3 locus661:3 locus662:3 locus663:2 locus664:2 locus665:3 locus666:3 locus667:3 locus668:3 locus669:3 
locus670:3 locus671:3 locus672:3 locus673:3 locus674:3 locus675:3 locus676:3 locus677:3 locus678:3 locus679:3 
locus680:3 locus681:3 locus682:3 locus683:3 locus684:3 locus685:3 locus686:2 locus687:3 locus688:3 locus689:3 
locus690:3 locus691:3 locus692:3 locus693:3 locus694:3 locus695:3 locus696:3 locus697:3 locus698:3 locus699:3 
locus700:3 locus701:3 locus702:3 locus703:3 locus704:3 locus705:3 locus706:3 locus707:3 locus708:3 locus709:3 
locus710:3 locus711:3 locus712:3 locus713:3 locus714:3 locus715:3 locus716:3 locus717:3 locus718:3 locus719:3 
locus720:3 locus721:3 locus722:3 locus723:3 locus724:3 locus725:3 locus726:3 locus727:3 locus728:3 locus729:3 
locus730:3 locus731:3 locus732:3 locus733:3 locus734:3 locus735:3 locus736:3 locus737:3 locus738:3 locus739:3 
locus740:3 locus741:3 locus742:3 locus743:3 locus744:3 locus745:2 locus746:3 locus747:3 locus748:3 locus749:3 
locus750:3 locus751:3 locus752:3 locus753:3 locus754:3 locus755:3 locus756:3 locus757:2 locus758:3 locus759:3 
locus760:3 locus761:3 locus762:3 locus763:3 locus764:3 locus765:3 locus766:3 locus767:3 locus768:3 locus769:3 
locus770:2 locus771:3 locus772:3 locus773:3 locus774:3 locus775:3 locus776:3 locus777:3 locus778:3 locus779:3 
locus780:3 locus781:3 locus782:3 locus783:3 locus784:3 locus785:3 locus786:3 locus787:3 locus788:3 locus789:3 
locus790:3 locus791:3 locus792:2 locus793:3 locus794:2 locus795:3 locus796:3 locus797:3 locus798:3 locus799:3 
locus800:2 locus801:3 locus802:3 locus803:3 locus804:3 locus805:3 locus806:3 locus807:3 locus808:3 locus809:2 
locus810:3 locus811:3 locus812:3 locus813:3 locus814:3 locus815:3 locus816:3 locus817:3 locus818:2 locus819:3 
locus820:2 locus821:3 locus822:3 locus823:3 locus824:3 locus825:3 locus826:2 locus827:3 locus828:3 locus829:3 
locus830:3 locus831:3 locus832:3 locus833:3 locus834:3 locus835:3 locus836:3 locus837:3 locus838:3 locus839:3 
locus840:3 locus841:3 locus842:3 locus843:3 locus844:2 locus845:3 locus846:3 locus847:3 locus848:3 locus849:3 
locus850:3 locus851:3 locus852:3 locus853:3 locus854:3 locus855:3 locus856:3 locus857:3 locus858:3 locus859:3 
locus860:3 locus861:2 locus862:3 locus863:3 locus864:3 locus865:3 locus866:3 locus867:3 locus868:3 locus869:3 
locus870:3 locus871:3 locus872:3 locus873:3 locus874:3 locus875:3 locus876:3 locus877:3 locus878:3 locus879:2 
locus880:3 locus881:3 locus882:3 locus883:3 locus884:3 locus885:3 locus886:3 locus887:3 locus888:3 locus889:3 
locus890:3 locus891:3 locus892:3 locus893:3 locus894:3 locus895:3 locus896:3 locus897:2 locus898:3 locus899:3 
locus900:3 locus901:3 locus902:3 locus903:3 locus904:3 locus905:3 locus906:3 locus907:3 locus908:2 locus909:3 
locus910:3 locus911:3 locus912:3 locus913:3 locus914:3 locus915:3 locus916:3 locus917:3 locus918:3 locus919:2 
locus920:3 locus921:3 locus922:3 locus923:3 locus924:3 locus925:2 locus926:3 locus927:3 locus928:3 locus929:3 
locus930:3 locus931:3 locus932:3 locus933:3 locus934:3 locus935:2 locus936:3 locus937:3 locus938:3 locus939:3 
locus940:3 locus941:3 locus942:3 locus943:2 locus944:3 locus945:2 locus946:3 locus947:3 locus948:3 locus949:3 
locus950:3 locus951:3 locus952:3 locus953:3 locus954:3 locus955:3 locus956:3 locus957:3 locus958:3 locus959:3 
locus960:3 locus961:3 locus962:3 locus963:3 locus964:3 locus965:3 locus966:3 locus967:3 locus968:3 locus969:3 
locus970:3 locus971:3 locus972:3 locus973:3 locus974:3 locus975:3 locus976:2 locus977:3 locus978:3 locus979:3 
locus980:3 locus981:3 locus982:3 locus983:3 locus984:3 locus985:3 locus986:3 locus987:3 locus988:3 locus989:3 
locus990:3 locus991:3 locus992:3 locus993:3 locus994:3 locus995:3 locus996:3 locus997:3 locus998:3 locus999:3 
locus1000:3 locus1001:3 locus1002:3 locus1003:3 locus1004:3 locus1005:3 locus1006:3 locus1007:3 locus1008:3 locus1009:3 
locus1010:3 locus1011:3 locus1012:3 locus1013:3 locus1014:3 locus1015:3 locus1016:3 locus1017:3 locus1018:3 locus1019:3 
locus1020:3 locus1021:3 locus1022:3 locus1023:3 locus1024:3 locus1025:3 locus1026:3 locus1027:3 locus1028:2 locus1029:3 
locus1030:3 locus1031:3 locus1032:3 locus1033:3 locus1034:3 locus1035:3 locus1036:3 locus1037:3 locus1038:3 locus1039:3 
locus1040:3 locus1041:3 locus1042:3 locus1043:3 locus1044:3 locus1045:3 locus1046:3 locus1047:3 locus1048:3 locus1049:3 
locus1050:3 locus1051:3 locus1052:3 locus1053:3 locus1054:2 locus1055:3 locus1056:3 locus1057:3 locus1058:3 locus1059:3 
locus1060:3 locus1061:3 locus1062:3 locus1063:3 locus1064:3 locus1065:3 locus1066:3 locus1067:3 locus1068:3 locus1069:3 
locus1070:3 locus1071:3 locus1072:3 locus1073:3 locus1074:3 locus1075:3 locus1076:3 locus1077:3 locus1078:3 locus1079:3 
locus1080:3 locus1081:3 locus1082:3 locus1083:3 locus1084:3 locus1085:3 locus1086:3 locus1087:3 locus1088:3 locus1089:3 
locus1090:3 locus1091:3 locus1092:3 locus1093:3 locus1094:3 locus1095:3 locus1096:3 locus1097:3 locus1098:3 locus1099:3 
locus1100:3 locus1101:3 locus1102:2 locus1103:3 locus1104:3 locus1105:3 locus1106:3 locus1107:3 locus1108:3 locus1109:3 
locus1110:3 locus1111:3 locus1112:3 locus1113:2 locus1114:3 locus1115:2 locus1116:2 locus1117:2 locus1118:3 locus1119:3 
locus1120:3 locus1121:3 locus1122:3 locus1123:3 locus1124:3 locus1125:3 locus1126:3 locus1127:3 locus1128:3 locus1129:3 
locus1130:3 locus1131:3 locus1132:3 locus1133:2 locus1134:3 locus1135:3 locus1136:3 locus1137:3 locus1138:3 locus1139:3 
locus1140:3 locus1141:3 locus1142:3 locus1143:3 locus1144:3 locus1145:3 locus1146:3 locus1147:3 locus1148:3 locus1149:3 
locus1150:3 locus1151:3 locus1152:3 locus1153:3 locus1154:3 locus1155:3 locus1156:3 locus1157:3 locus1158:3 locus1159:3 
locus1160:3 locus1161:3 locus1162:3 locus1163:3 locus1164:3 locus1165:3 locus1166:3 locus1167:3 locus1168:3 locus1169:3 
locus1170:3 locus1171:3 locus1172:3 locus1173:3 locus1174:3 locus1175:3 locus1176:3 locus1177:2 locus1178:3 locus1179:3 
locus1180:3 locus1181:3 locus1182:3 locus1183:3 locus1184:3 locus1185:3 locus1186:3 locus1187:3 locus1188:3 locus1189:3 
locus1190:3 locus1191:2 locus1192:3 locus1193:3 locus1194:3 locus1195:3 locus1196:3 locus1197:3 locus1198:3 locus1199:3 
locus1200:3 locus1201:3 locus1202:3 locus1203:3 locus1204:3 locus1205:2 locus1206:3 locus1207:3 locus1208:3 locus1209:3 
locus1210:3 locus1211:3 locus1212:3 locus1213:3 locus1214:3 locus1215:3 locus1216:3 locus1217:2 locus1218:3 locus1219:3 
locus1220:3 locus1221:2 locus1222:3 locus1223:3 locus1224:3 locus1225:3 locus1226:3 locus1227:3 locus1228:2 locus1229:3 
locus1230:3 locus1231:3 locus1232:3 locus1233:3 locus1234:3 locus1235:3 locus1236:3 locus1237:3 locus1238:3 locus1239:3 
locus1240:3 locus1241:3 locus1242:3 locus1243:3 locus1244:3 locus1245:3 locus1246:3 locus1247:3 locus1248:3 locus1249:3 
locus1250:3 locus1251:3 locus1252:3 locus1253:3 locus1254:3 locus1255:3 locus1256:3 locus1257:3 locus1258:3 locus1259:2 
locus1260:3 locus1261:3 locus1262:3 locus1263:3 locus1264:3 locus1265:2 locus1266:3 locus1267:3 locus1268:2 locus1269:3 
locus1270:3 locus1271:3 locus1272:3 locus1273:3 locus1274:3 locus1275:3 locus1276:3 locus1277:3 locus1278:3 locus1279:3 
locus1280:3 locus1281:3 locus1282:3 locus1283:3 locus1284:3 locus1285:3 locus1286:3 locus1287:3 locus1288:3 locus1289:3 
locus1290:3 locus1291:3 locus1292:3 locus1293:3 locus1294:3 locus1295:3 locus1296:3 locus1297:3 locus1298:3 locus1299:3 
locus1300:3 locus1301:3 locus1302:3 locus1303:3 locus1304:3 locus1305:3 locus1306:3 locus1307:3 locus1308:3 locus1309:3 
locus1310:3 locus1311:3 locus1312:3 locus1313:2 locus1314:3 locus1315:3 locus1316:3 locus1317:3 locus1318:3 locus1319:3 
locus1320:3 locus1321:3 locus1322:3 locus1323:3 locus1324:2 locus1325:3 locus1326:3 locus1327:3 locus1328:3 locus1329:3 
locus1330:3 locus1331:3 locus1332:3 locus1333:3 locus1334:3 locus1335:2 locus1336:3 locus1337:3 locus1338:3 locus1339:3 
locus1340:3 locus1341:3 locus1342:3 locus1343:3 locus1344:3 locus1345:3 locus1346:2 locus1347:3 locus1348:3 locus1349:3 
locus1350:3 locus1351:3 locus1352:3 locus1353:3 locus1354:3 locus1355:3 locus1356:3 locus1357:3 locus1358:3 locus1359:3 
locus1360:3 locus1361:3 locus1362:3 locus1363:3 locus1364:3 locus1365:3 locus1366:3 locus1367:3 locus1368:3 locus1369:3 
locus1370:2 locus1371:3 locus1372:3 locus1373:3 locus1374:3 locus1375:3 locus1376:3 locus1377:3 locus1378:3 locus1379:3 
locus1380:3 locus1381:3 locus1382:3 locus1383:3 locus1384:2 locus1385:3 locus1386:3 locus1387:3 locus1388:3 locus1389:3 
locus1390:3 locus1391:3 locus1392:3 locus1393:3 locus1394:3 locus1395:3 locus1396:3 locus1397:2 locus1398:3 locus1399:3 
locus1400:3 locus1401:3 locus1402:2 locus1403:3 locus1404:3 locus1405:3 locus1406:3 locus1407:3 locus1408:3 locus1409:3 
locus1410:3 locus1411:3 locus1412:3 locus1413:3 locus1414:3 locus1415:3 locus1416:3 locus1417:3 locus1418:3 locus1419:2 
locus1420:3 locus1421:3 locus1422:3 locus1423:3 locus1424:3 locus1425:2 locus1426:3 locus1427:3 locus1428:3 locus1429:3 
locus1430:2 locus1431:3 locus1432:2 locus1433:2 locus1434:3 locus1435:3 locus1436:3 locus1437:3 locus1438:3 locus1439:3 
locus1440:3 locus1441:3 locus1442:3 locus1443:3 locus1444:3 locus1445:3 locus1446:3 locus1447:3 locus1448:3 locus1449:3 
locus1450:3 locus1451:3 locus1452:3 locus1453:3 locus1454:3 locus1455:3 locus1456:3 locus1457:3 locus1458:3 locus1459:3 
locus1460:3 locus1461:3 locus1462:3 locus1463:2 locus1464:3 locus1465:3 locus1466:3 locus1467:3 locus1468:3 locus1469:3 
locus1470:3 locus1471:3 locus1472:3 locus1473:3 locus1474:3 locus1475:3 locus1476:3 locus1477:3 locus1478:3 locus1479:3 
locus1480:2 locus1481:3 locus1482:3 locus1483:3 locus1484:3 locus1485:3 locus1486:3 locus1487:3 locus1488:3 locus1489:3 
locus1490:3 locus1491:2 locus1492:3 locus1493:3 locus1494:2 locus1495:3 locus1496:3 locus1497:2 locus1498:3 locus1499:3 
locus1500:3 locus1501:2 locus1502:3 locus1503:3 locus1504:3 locus1505:3 locus1506:3 locus1507:3 locus1508:3 locus1509:3 
locus1510:3 locus1511:3 locus1512:2 locus1513:3 locus1514:3 locus1515:3 locus1516:3 locus1517:3 locus1518:3 locus1519:3 
locus1520:3 locus1521:3 locus1522:3 locus1523:3 locus1524:3 locus1525:2 locus1526:3 locus1527:3 locus1528:3 locus1529:3 
locus1530:3 locus1531:3 locus1532:3 locus1533:2 locus1534:3 locus1535:3 locus1536:3 locus1537:3 locus1538:3 locus1539:3 
locus1540:3 locus1541:3 locus1542:3 locus1543:3 locus1544:3 locus1545:3 locus1546:3 locus1547:3 locus1548:3 locus1549:3 
locus1550:2 locus1551:3 locus1552:3 locus1553:3 locus1554:3 locus1555:3 locus1556:3 locus1557:3 locus1558:2 locus1559:3 
locus1560:3 locus1561:2 locus1562:3 locus1563:3 locus1564:2 locus1565:3 locus1566:3 locus1567:3 locus1568:3 locus1569:3 
locus1570:3 locus1571:3 locus1572:3 locus1573:3 locus1574:3 locus1575:3 locus1576:3 locus1577:3 locus1578:3 locus1579:3 
locus1580:3 locus1581:3 locus1582:3 locus1583:3 locus1584:3 locus1585:2 locus1586:3 locus1587:2 locus1588:3 locus1589:3 
locus1590:3 locus1591:3 locus1592:3 locus1593:2 locus1594:3 locus1595:3 locus1596:3 locus1597:2 locus1598:3 locus1599:3 
locus1600:3 locus1601:3 locus1602:3 locus1603:3 locus1604:3 locus1605:3 locus1606:3 locus1607:3 locus1608:3 locus1609:3 
locus1610:3 locus1611:3 locus1612:3 locus1613:3 locus1614:3 locus1615:2 locus1616:3 locus1617:2 locus1618:2 locus1619:3 
locus1620:3 locus1621:3 locus1622:3 locus1623:2 locus1624:3 locus1625:3 locus1626:3 locus1627:3 locus1628:3 locus1629:3 
locus1630:3 locus1631:3 locus1632:3 locus1633:3 locus1634:3 locus1635:3 locus1636:3 locus1637:2 locus1638:3 locus1639:3 
locus1640:3 locus1641:3 locus1642:3 locus1643:3 locus1644:3 locus1645:3 locus1646:3 locus1647:3 locus1648:3 locus1649:3 
locus1650:3 locus1651:3 locus1652:3 locus1653:3 locus1654:3 locus1655:3 locus1656:3 locus1657:3 locus1658:3 locus1659:3 
locus1660:3 locus1661:3 locus1662:3 locus1663:3 locus1664:3 locus1665:3 locus1666:2 locus1667:3 locus1668:3 locus1669:3 
locus1670:3 locus1671:3 locus1672:3 locus1673:3 locus1674:3 locus1675:3 locus1676:3 locus1677:3 locus1678:2 locus1679:3 
locus1680:3 locus1681:3 locus1682:3 locus1683:3 locus1684:3 locus1685:3 locus1686:3 locus1687:3 locus1688:3 locus1689:3 
locus1690:3 locus1691:2 locus1692:3 locus1693:3 locus1694:3 locus1695:3 locus1696:3 locus1697:3 locus1698:3 locus1699:3 
locus1700:3 locus1701:3 locus1702:3 locus1703:3 locus1704:3 locus1705:3 locus1706:3 locus1707:3 locus1708:3 locus1709:3 
locus1710:3 locus1711:3 locus1712:3 locus1713:3 locus1714:3 locus1715:3 locus1716:3 locus1717:3 locus1718:3 locus1719:3 
locus1720:2 locus1721:3 locus1722:2 locus1723:3 locus1724:3 locus1725:2 locus1726:3 locus1727:3 locus1728:3 locus1729:3 
locus1730:3 locus1731:3 locus1732:3 locus1733:3 locus1734:3 locus1735:3 locus1736:3 locus1737:3 locus1738:3 locus1739:3 
locus1740:3 locus1741:3 locus1742:3 locus1743:2 locus1744:2 locus1745:3 locus1746:2 locus1747:3 locus1748:3 locus1749:3 
locus1750:3 locus1751:3 locus1752:3 locus1753:3 locus1754:3 locus1755:3 locus1756:3 locus1757:2 locus1758:3 locus1759:2 
locus1760:2 locus1761:3 locus1762:3 locus1763:3 locus1764:3 locus1765:3 locus1766:3 locus1767:3 locus1768:3 locus1769:3 
locus1770:2 locus1771:3 locus1772:3 locus1773:3 locus1774:3 locus1775:3 locus1776:3 locus1777:3 locus1778:3 locus1779:3 
locus1780:3 locus1781:3 locus1782:3 locus1783:3 locus1784:3 locus1785:3 locus1786:3 locus1787:3 locus1788:3 locus1789:3 
locus1790:3 locus1791:3 locus1792:3 locus1793:3 locus1794:3 locus1795:3 locus1796:3 locus1797:3 locus1798:3 locus1799:3 
locus1800:3 locus1801:3 locus1802:3 locus1803:3 locus1804:3 locus1805:2 locus1806:3 locus1807:3 locus1808:2 locus1809:3 
locus1810:2 locus1811:3 locus1812:3 locus1813:3 locus1814:3 locus1815:3 locus1816:3 locus1817:3 locus1818:3 locus1819:3 
locus1820:3 locus1821:3 locus1822:3 locus1823:3 locus1824:3 locus1825:3 locus1826:3 locus1827:3 locus1828:3 locus1829:3 
locus1830:2 locus1831:3 locus1832:2 locus1833:3 locus1834:2 locus1835:2 locus1836:2 locus1837:3 locus1838:3 locus1839:3 
locus1840:3 locus1841:3 locus1842:3 locus1843:3 locus1844:3 locus1845:3 locus1846:2 locus1847:3 locus1848:3 locus1849:3 
locus1850:3 locus1851:3 locus1852:3 locus1853:3 locus1854:3 locus1855:2 locus1856:3 locus1857:3 locus1858:3 locus1859:3 
locus1860:3 locus1861:3 locus1862:3 locus1863:2 locus1864:3 locus1865:3 locus1866:3 locus1867:3 locus1868:3 locus1869:3 
locus1870:3 locus1871:3 locus1872:3 locus1873:3 locus1874:3 locus1875:3 locus1876:3 locus1877:3 locus1878:3 locus1879:2 
locus1880:3 locus1881:3 locus1882:3 locus1883:3 locus1884:3 locus1885:3 locus1886:3 locus1887:3 locus1888:2 locus1889:3 
locus1890:3 locus1891:3 locus1892:3 locus1893:3 locus1894:3 locus1895:3 locus1896:3 locus1897:3 locus1898:3 locus1899:3 
locus1900:3 locus1901:2 locus1902:3 locus1903:3 locus1904:3 locus1905:3 locus1906:3 locus1907:3 locus1908:3 locus1909:3 
locus1910:3 locus1911:3 locus1912:2 locus1913:3 locus1914:3 locus1915:3 locus1916:3 locus1917:3 locus1918:3 locus1919:3 
locus1920:2 locus1921:3 locus1922:3 locus1923:2 locus1924:3 locus1925:3 locus1926:3 locus1927:3 locus1928:3 locus1929:3 
locus1930:3 locus1931:3 locus1932:3 locus1933:3 locus1934:3 locus1935:3 locus1936:3 locus1937:3 locus1938:2 locus1939:3 
locus1940:3 locus1941:3 locus1942:3 locus1943:3 locus1944:3 locus1945:3 locus1946:3 locus1947:3 locus1948:3 locus1949:2 
locus1950:3 locus1951:3 locus1952:3 locus1953:3 locus1954:3 locus1955:3 locus1956:2 locus1957:3 locus1958:3 locus1959:3 
locus1960:3 locus1961:3 locus1962:3 locus1963:3 locus1964:3 locus1965:3 locus1966:3 locus1967:3 locus1968:3 locus1969:3 
locus1970:3 locus1971:3 locus1972:3 locus1973:3 locus1974:3 locus1975:2 locus1976:3 locus1977:3 locus1978:3 locus1979:3 
locus1980:3 locus1981:3 locus1982:3 locus1983:3 locus1984:3 locus1985:2 locus1986:3 locus1987:3 locus1988:3 locus1989:2 
locus1990:3 locus1991:3 locus1992:3 locus1993:3 locus1994:3 locus1995:3 locus1996:3 locus1997:2 locus1998:2 locus1999:3 
locus2000:3 locus2001:3 locus2002:3 locus2003:3 locus2004:3 locus2005:2 locus2006:3 locus2007:3 locus2008:3 locus2009:3 
locus2010:3 locus2011:3 locus2012:3 locus2013:3 locus2014:3 locus2015:3 locus2016:2 locus2017:3 locus2018:3 locus2019:3 
locus2020:2 locus2021:3 locus2022:3 locus2023:3 locus2024:3 locus2025:3 locus2026:3 locus2027:3 locus2028:3 locus2029:2 
locus2030:3 locus2031:3 locus2032:3 locus2033:3 locus2034:3 locus2035:3 locus2036:3 locus2037:3 locus2038:3 locus2039:3 
locus2040:2 locus2041:3 locus2042:3 locus2043:3 locus2044:3 locus2045:3 locus2046:2 locus2047:3 locus2048:3 locus2049:3 
locus2050:3 locus2051:3 locus2052:3 locus2053:3 locus2054:2 locus2055:3 locus2056:3 locus2057:3 locus2058:3 locus2059:3 
locus2060:3 locus2061:3 locus2062:3 locus2063:3 locus2064:3 locus2065:3 locus2066:3 locus2067:3 locus2068:3 locus2069:3 
locus2070:3 locus2071:3 locus2072:3 locus2073:3 locus2074:3 locus2075:3 locus2076:3 locus2077:3 locus2078:3 locus2079:3 
locus2080:3 locus2081:3 locus2082:3 locus2083:3 locus2084:3 locus2085:3 locus2086:3 locus2087:3 locus2088:3 locus2089:3 
locus2090:2 locus2091:3 locus2092:3 locus2093:3 locus2094:3 locus2095:3 locus2096:3 locus2097:3 locus2098:3 locus2099:3 
locus2100:2 locus2101:3 locus2102:3 locus2103:3 locus2104:3 locus2105:3 locus2106:3 locus2107:3 locus2108:3 locus2109:3 
locus2110:3 locus2111:3 locus2112:3 locus2113:3 locus2114:3 locus2115:3 locus2116:3 locus2117:3 locus2118:3 locus2119:2 
locus2120:3 locus2121:3 locus2122:3 locus2123:3 locus2124:3 locus2125:3 locus2126:2 locus2127:3 locus2128:3 locus2129:3 
locus2130:2 locus2131:3 locus2132:3 locus2133:3 locus2134:3 locus2135:3 locus2136:3 locus2137:3 locus2138:3 locus2139:2 
locus2140:3 locus2141:3 locus2142:3 locus2143:3 locus2144:3 locus2145:3 locus2146:3 locus2147:3 locus2148:3 locus2149:2 
locus2150:3 locus2151:2 locus2152:3 locus2153:2 locus2154:3 locus2155:3 locus2156:3 locus2157:2 locus2158:3 locus2159:3 
locus2160:3 locus2161:3 locus2162:3 locus2163:3 locus2164:2 locus2165:3 locus2166:3 locus2167:3 locus2168:3 locus2169:3 
locus2170:3 locus2171:3 locus2172:3 locus2173:3 locus2174:3 locus2175:3 locus2176:3 locus2177:3 locus2178:3 locus2179:3 
locus2180:3 locus2181:3 locus2182:3 locus2183:3 locus2184:3 locus2185:3 locus2186:3 locus2187:3 locus2188:3 locus2189:3 
locus2190:3 locus2191:3 locus2192:3 locus2193:3 locus2194:3 locus2195:3 locus2196:3 locus2197:3 locus2198:3 locus2199:3 
locus2200:3 locus2201:3 locus2202:3 locus2203:3 locus2204:3 locus2205:3 locus2206:3 locus2207:3 locus2208:3 locus2209:3 
locus2210:3 locus2211:3 locus2212:3 locus2213:3 locus2214:3 locus2215:3 locus2216:3 locus2217:3 locus2218:3 locus2219:3 
locus2220:3 locus2221:3 locus2222:3 locus2223:3 locus2224:3 locus2225:3 locus2226:3 locus2227:3 locus2228:2 locus2229:3 
locus2230:3 locus2231:2 locus2232:3 locus2233:3 locus2234:3 locus2235:3 locus2236:3 locus2237:3 locus2238:2 locus2239:3 
locus2240:3 locus2241:2 locus2242:3 locus2243:3 locus2244:3 locus2245:3 locus2246:3 locus2247:3 locus2248:3 locus2249:3 
locus2250:3 locus2251:3 locus2252:3 locus2253:3 locus2254:3 locus2255:3 locus2256:3 locus2257:3 locus2258:3 locus2259:3 
locus2260:3 locus2261:2 locus2262:3 locus2263:2 locus2264:3 locus2265:3 locus2266:3 locus2267:3 locus2268:3 locus2269:3 
locus2270:3 locus2271:3 locus2272:3 locus2273:3 locus2274:3 locus2275:3 locus2276:3 locus2277:3 locus2278:3 locus2279:3 
locus2280:3 locus2281:3 locus2282:3 locus2283:3 locus2284:3 locus2285:3 locus2286:3 locus2287:3 locus2288:3 locus2289:3 
locus2290:3 locus2291:3 locus2292:3 locus2293:3 locus2294:3 locus2295:3 locus2296:3 locus2297:3 locus2298:3 locus2299:3 
locus2300:3 locus2301:3 locus2302:3 locus2303:3 locus2304:3 locus2305:2 locus2306:3 locus2307:3 locus2308:3 locus2309:3 
locus2310:3 locus2311:3 locus2312:3 locus2313:3 locus2314:3 locus2315:3 locus2316:3 locus2317:3 locus2318:2 locus2319:3 
locus2320:3 locus2321:3 locus2322:3 locus2323:3 locus2324:3 locus2325:2 locus2326:3 locus2327:3 locus2328:3 locus2329:3 
locus2330:3 locus2331:3 locus2332:3 locus2333:2 locus2334:3 locus2335:3 locus2336:3 locus2337:3 locus2338:3 locus2339:3 
locus2340:3 locus2341:2 locus2342:3 locus2343:3 locus2344:3 locus2345:3 locus2346:3 locus2347:3 locus2348:2 locus2349:3 
locus2350:3 locus2351:3 locus2352:3 locus2353:3 locus2354:3 locus2355:3 locus2356:3 locus2357:3 locus2358:3 locus2359:3 
locus2360:3 locus2361:3 locus2362:3 locus2363:3 locus2364:3 locus2365:3 locus2366:3 locus2367:3 locus2368:3 locus2369:3 
locus2370:3 locus2371:3 locus2372:3 locus2373:3 locus2374:3 locus2375:3 locus2376:3 locus2377:3 locus2378:3 locus2379:3 
locus2380:3 locus2381:3 locus2382:3 locus2383:3 locus2384:3 locus2385:3 locus2386:3 locus2387:3 locus2388:3 locus2389:3 
locus2390:3 locus2391:3 locus2392:3 locus2393:3 locus2394:3 locus2395:3 locus2396:3 locus2397:3 locus2398:3 locus2399:3 
locus2400:3 locus2401:3 locus2402:3 locus2403:3 locus2404:3 locus2405:3 locus2406:3 locus2407:3 locus2408:3 locus2409:3 
locus2410:3 locus2411:3 locus2412:3 locus2413:3 locus2414:3 locus2415:3 locus2416:3 locus2417:3 locus2418:2 locus2419:3 
locus2420:3 locus2421:3 locus2422:3 locus2423:3 locus2424:3 locus2425:3 locus2426:3 locus2427:3 locus2428:3 locus2429:3 
locus2430:3 locus2431:3 locus2432:3 locus2433:3 locus2434:3 locus2435:3 locus2436:3 locus2437:3 locus2438:3 locus2439:2 
locus2440:3 locus2441:2 locus2442:3 locus2443:2 locus2444:3 locus2445:3 locus2446:3 locus2447:3 locus2448:3 locus2449:3 
locus2450:3 locus2451:3 locus2452:3 locus2453:3 locus2454:3 locus2455:2 locus2456:3 locus2457:3 locus2458:3 locus2459:2 
locus2460:3 locus2461:3 locus2462:2 locus2463:2 locus2464:3 locus2465:3 locus2466:3 locus2467:3 locus2468:3 locus2469:3 
locus2470:3 locus2471:3 locus2472:2 locus2473:3 locus2474:3 locus2475:3 locus2476:3 locus2477:3 locus2478:3 locus2479:3 
locus2480:3 locus2481:3 locus2482:3 locus2483:3 locus2484:3 locus2485:3 locus2486:2 locus2487:3 locus2488:3 locus2489:3 
locus2490:3 locus2491:3 locus2492:3 locus2493:3 locus2494:3 locus2495:3 locus2496:3 locus2497:2 locus2498:3 locus2499:3 
locus2500:3 locus2501:3 locus2502:3 locus2503:3 locus2504:3 locus2505:3 locus2506:3 locus2507:3 locus2508:3 locus2509:3 
locus2510:3 locus2511:3 locus2512:3 locus2513:2 locus2514:3 locus2515:3 locus2516:3 locus2517:3 locus2518:3 locus2519:3 
locus2520:3 locus2521:3 locus2522:3 locus2523:3 locus2524:3 locus2525:3 locus2526:3 locus2527:3 locus2528:2 locus2529:3 
locus2530:3 locus2531:3 locus2532:3 locus2533:2 locus2534:3 locus2535:3 locus2536:3 locus2537:3 locus2538:3 locus2539:3 
locus2540:2 locus2541:3 locus2542:3 locus2543:3 locus2544:3 locus2545:3 locus2546:3 locus2547:3 locus2548:3 locus2549:3 
locus2550:3 locus2551:3 locus2552:3 locus2553:3 locus2554:2 locus2555:3 locus2556:3 locus2557:3 locus2558:3 locus2559:2 
locus2560:3 locus2561:3 locus2562:3 locus2563:3 locus2564:3 locus2565:3 locus2566:3 locus2567:3 locus2568:3 locus2569:3 
locus2570:3 locus2571:2 locus2572:3 locus2573:3 locus2574:3 locus2575:3 locus2576:3 locus2577:3 locus2578:3 locus2579:3 
locus2580:3 locus2581:3 locus2582:3 locus2583:3 locus2584:3 locus2585:3 locus2586:3 locus2587:3 locus2588:3 locus2589:3 
locus2590:3 locus2591:3 locus2592:3 locus2593:3 locus2594:3 locus2595:3 locus2596:3 locus2597:3 locus2598:3 locus2599:3 
locus2600:3 locus2601:3 locus2602:3 locus2603:3 locus2604:3 locus2605:3 locus2606:3 locus2607:3 locus2608:3 locus2609:3 
locus2610:3 locus2611:3 locus2612:3 locus2613:3 locus2614:3 locus2615:3 locus2616:3 locus2617:3 locus2618:3 locus2619:2 
locus2620:3 locus2621:2 locus2622:3 locus2623:3 locus2624:3 locus2625:3 locus2626:3 locus2627:3 locus2628:3 locus2629:3 
locus2630:3 locus2631:3 locus2632:3 locus2633:3 locus2634:3 locus2635:2 locus2636:3 locus2637:3 locus2638:3 locus2639:3 
locus2640:3 locus2641:3 locus2642:3 locus2643:3 locus2644:3 locus2645:3 locus2646:3 locus2647:2 locus2648:3 locus2649:3 
locus2650:3 locus2651:3 locus2652:3 locus2653:3 locus2654:3 locus2655:3 locus2656:3 locus2657:3 locus2658:3 locus2659:2 
locus2660:3 locus2661:3 locus2662:3 locus2663:3 locus2664:3 locus2665:3 locus2666:3 locus2667:3 locus2668:3 locus2669:3 
locus2670:3 locus2671:3 locus2672:2 locus2673:3 locus2674:2 locus2675:3 locus2676:3 locus2677:3 locus2678:3 locus2679:3 
locus2680:3 locus2681:3 locus2682:3 locus2683:2 locus2684:3 locus2685:3 locus2686:3 locus2687:3 locus2688:3 locus2689:3 
locus2690:3 locus2691:3 locus2692:3 locus2693:3 locus2694:3 locus2695:3 locus2696:3 locus2697:3 locus2698:3 locus2699:3 
locus2700:3 locus2701:3 locus2702:3 locus2703:2 locus2704:3 locus2705:3 locus2706:3 locus2707:3 locus2708:2 locus2709:3 
locus2710:3 locus2711:2 locus2712:3 locus2713:2 locus2714:3 locus2715:3 locus2716:3 locus2717:2 locus2718:3 locus2719:3 
locus2720:3 locus2721:3 locus2722:2 locus2723:3 locus2724:3 locus2725:3 locus2726:3 locus2727:3 locus2728:3 locus2729:3 
locus2730:3 locus2731:3 locus2732:3 locus2733:3 locus2734:3 locus2735:3 locus2736:3 locus2737:3 locus2738:3 locus2739:3 
locus2740:3 locus2741:3 locus2742:3 locus2743:2 locus2744:3 locus2745:3 locus2746:3 locus2747:3 locus2748:3 locus2749:3 
locus2750:3 locus2751:3 locus2752:3 locus2753:3 locus2754:3 locus2755:3 locus2756:3 locus2757:3 locus2758:3 locus2759:3 
locus2760:3 locus2761:3 locus2762:3 locus2763:3 locus2764:3 locus2765:2 locus2766:3 locus2767:3 locus2768:3 locus2769:3 
locus2770:3 locus2771:3 locus2772:3 locus2773:3 locus2774:3 locus2775:3 locus2776:3 locus2777:3 locus2778:3 locus2779:2 
locus2780:3 locus2781:3 locus2782:3 locus2783:3 locus2784:3 locus2785:3 locus2786:3 locus2787:3 locus2788:3 locus2789:3 
locus2790:3 locus2791:3 locus2792:3 locus2793:3 locus2794:3 locus2795:3 locus2796:2 locus2797:3 locus2798:2 locus2799:3 
locus2800:3 locus2801:3 locus2802:3 locus2803:3 locus2804:3 locus2805:3 locus2806:3 locus2807:3 locus2808:3 locus2809:2 
locus2810:3 locus2811:3 locus2812:3 locus2813:3 locus2814:3 locus2815:3 locus2816:3 locus2817:2 locus2818:3 locus2819:3 
locus2820:3 locus2821:3 locus2822:2 locus2823:3 locus2824:2 locus2825:3 locus2826:3 locus2827:3 locus2828:3 locus2829:3 
locus2830:3 locus2831:3 locus2832:3 locus2833:3 locus2834:3 locus2835:3 locus2836:3 locus2837:3 locus2838:3 locus2839:3 
locus2840:3 locus2841:3 locus2842:3 locus2843:3 locus2844:3 locus2845:3 locus2846:3 locus2847:3 locus2848:3 locus2849:3 
locus2850:3 locus2851:3 locus2852:2 locus2853:3 locus2854:3 locus2855:3 locus2856:2 locus2857:3 locus2858:3 locus2859:3 
locus2860:3 locus2861:3 locus2862:3 locus2863:3 locus2864:3 locus2865:3 locus2866:3 locus2867:2 locus2868:3 locus2869:3 
locus2870:2 locus2871:3 locus2872:3 locus2873:3 locus2874:2 locus2875:3 locus2876:3 locus2877:3 locus2878:2 locus2879:3 
locus2880:3 locus2881:3 locus2882:3 locus2883:2 locus2884:3 locus2885:3 locus2886:3 locus2887:3 locus2888:3 locus2889:3 
locus2890:3 locus2891:3 locus2892:3 locus2893:3 locus2894:3 locus2895:3 locus2896:3 locus2897:2 locus2898:3 locus2899:3 
locus2900:2 locus2901:3 locus2902:3 locus2903:3 locus2904:3 locus2905:3 locus2906:3 locus2907:3 locus2908:3 locus2909:3 
locus2910:2 locus2911:3 locus2912:3 locus2913:3 locus2914:3 locus2915:3 locus2916:3 locus2917:3 locus2918:3 locus2919:3 
locus2920:3 locus2921:3 locus2922:3 locus2923:3 locus2924:2 locus2925:3 locus2926:3 locus2927:3 locus2928:3 locus2929:3 
locus2930:3 locus2931:3 locus2932:3 locus2933:3 locus2934:3 locus2935:3 locus2936:3 locus2937:2 locus2938:3 locus2939:3 
locus2940:3 locus2941:3 locus2942:3 locus2943:3 locus2944:3 locus2945:3 locus2946:2 locus2947:3 locus2948:3 locus2949:3 
locus2950:3 locus2951:3 locus2952:3 locus2953:3 locus2954:3 locus2955:3 locus2956:3 locus2957:3 locus2958:3 locus2959:3 
locus2960:3 locus2961:3 locus2962:3 locus2963:3 locus2964:3 locus2965:3 locus2966:3 locus2967:3 locus2968:3 locus2969:3 
locus2970:3 locus2971:3 locus2972:3 locus2973:3 locus2974:3 locus2975:3 locus2976:3 locus2977:3 locus2978:2 locus2979:3 
locus2980:2 locus2981:3 locus2982:3 locus2983:3 locus2984:3 locus2985:3 locus2986:3 locus2987:3 locus2988:3 locus2989:3 
locus2990:2 locus2991:3 locus2992:3 locus2993:3 locus2994:3 locus2995:3 locus2996:3 locus2997:3 locus2998:3 locus2999:3 
locus3000:3 locus3001:3 locus3002:3 locus3003:3 locus3004:3 locus3005:3 locus3006:3 locus3007:3 locus3008:2 locus3009:3 
locus3010:3 locus3011:3 locus3012:3 locus3013:3 locus3014:3 locus3015:2 locus3016:3 locus3017:3 locus3018:3 locus3019:3 
locus3020:3 locus3021:3 locus3022:3 locus3023:3 locus3024:3 locus3025:3 locus3026:3 locus3027:3 locus3028:2 locus3029:3 
locus3030:3 locus3031:3 locus3032:3 locus3033:2 locus3034:3 locus3035:3 locus3036:3 locus3037:3 locus3038:3 locus3039:3 
locus3040:3 locus3041:3 locus3042:2 locus3043:3 locus3044:2 locus3045:3 locus3046:3 locus3047:3 locus3048:3 locus3049:3 
locus3050:3 locus3051:3 locus3052:3 locus3053:3 locus3054:2 locus3055:2 locus3056:3 locus3057:3 locus3058:3 locus3059:3 
locus3060:3 locus3061:3 locus3062:3 locus3063:3 locus3064:2 locus3065:3 locus3066:3 locus3067:3 locus3068:3 locus3069:3 
locus3070:3 locus3071:3 locus3072:3 locus3073:3 locus3074:2 locus3075:3 locus3076:3 locus3077:2 locus3078:3 locus3079:3 
locus3080:2 locus3081:3 locus3082:2 locus3083:3 locus3084:2 locus3085:3 locus3086:3 locus3087:2 locus3088:3 locus3089:3 
locus3090:3 locus3091:3 locus3092:3 locus3093:2 locus3094:3 locus3095:2 locus3096:3 locus3097:3 locus3098:2 locus3099:3 
locus3100:3 locus3101:3 locus3102:3 locus3103:2 locus3104:3 locus3105:3 locus3106:3 locus3107:3 locus3108:3 locus3109:3 
locus3110:3 locus3111:3 locus3112:3 locus3113:3 locus3114:3 locus3115:3 locus3116:3 locus3117:3 locus3118:2 locus3119:3 
locus3120:3 locus3121:2 locus3122:3 locus3123:3 locus3124:3 locus3125:3 locus3126:3 locus3127:3 locus3128:3 locus3129:3 
locus3130:3 locus3131:3 locus3132:3 locus3133:3 locus3134:3 locus3135:3 locus3136:3 locus3137:3 locus3138:3 locus3139:3 
locus3140:3 locus3141:3 locus3142:3 locus3143:2 locus3144:3 locus3145:3 locus3146:3 locus3147:3 locus3148:3 locus3149:3 
locus3150:2 locus3151:3 locus3152:3 locus3153:3 locus3154:3 locus3155:3 locus3156:3 locus3157:3 locus3158:3 locus3159:2 
locus3160:3 locus3161:3 locus3162:3 locus3163:3 locus3164:2 locus3165:3 locus3166:3 locus3167:3 locus3168:3 locus3169:2 
locus3170:3 locus3171:3 locus3172:2 locus3173:3 locus3174:3 locus3175:2 locus3176:3 locus3177:3 locus3178:3 locus3179:3 
locus3180:3 locus3181:3 locus3182:3 locus3183:3 locus3184:3 locus3185:3 locus3186:3 locus3187:3 locus3188:3 locus3189:3 
locus3190:3 locus3191:3 locus3192:3 locus3193:3 locus3194:3 locus3195:3 locus3196:3 locus3197:3 locus3198:3 locus3199:3 
locus3200:3 locus3201:3 locus3202:3 locus3203:3 locus3204:2 locus3205:3 locus3206:3 locus3207:3 locus3208:3 locus3209:3 
locus3210:2 locus3211:3 locus3212:3 locus3213:3 locus3214:3 locus3215:3 locus3216:3 locus3217:3 locus3218:3 locus3219:3 
locus3220:3 locus3221:2 locus3222:3 locus3223:3 locus3224:3 locus3225:3 locus3226:3 locus3227:3 locus3228:3 locus3229:3 
locus3230:3 locus3231:3 locus3232:3 locus3233:3 locus3234:3 locus3235:3 locus3236:3 locus3237:3 locus3238:3 locus3239:3 
locus3240:3 locus3241:3 locus3242:3 locus3243:3 locus3244:2 locus3245:3 locus3246:3 locus3247:3 locus3248:3 locus3249:3 
locus3250:3 locus3251:3 locus3252:3 locus3253:3 locus3254:3 locus3255:3 locus3256:3 locus3257:3 locus3258:3 locus3259:2 
locus3260:3 locus3261:3 locus3262:3 locus3263:3 locus3264:3 locus3265:3 locus3266:3 locus3267:3 locus3268:3 locus3269:3 
locus3270:3 locus3271:3 locus3272:3 locus3273:3 locus3274:3 locus3275:3 locus3276:3 locus3277:3 locus3278:3 locus3279:3 
locus3280:3 locus3281:3 locus3282:3 locus3283:3 locus3284:3 locus3285:3 locus3286:3 locus3287:3 locus3288:2 locus3289:3 
locus3290:3 locus3291:3 locus3292:3 locus3293:3 locus3294:3 locus3295:2 locus3296:3 locus3297:3 locus3298:3 locus3299:3 
locus3300:3 locus3301:2 locus3302:3 locus3303:3 locus3304:3 locus3305:3 locus3306:3 locus3307:3 locus3308:3 locus3309:3 
locus3310:3 locus3311:3 locus3312:3 locus3313:3 locus3314:3 locus3315:3 locus3316:3 locus3317:3 locus3318:3 locus3319:3 
locus3320:3 locus3321:3 locus3322:3 locus3323:3 locus3324:3 locus3325:3 locus3326:3 locus3327:3 locus3328:3 locus3329:3 
locus3330:3 locus3331:3 locus3332:3 locus3333:3 locus3334:3 locus3335:3 locus3336:3 locus3337:3 locus3338:3 locus3339:3 
locus3340:3 locus3341:3 locus3342:3 locus3343:3 locus3344:3 locus3345:3 locus3346:3 locus3347:3 locus3348:3 locus3349:3 
locus3350:3 locus3351:3 locus3352:3 locus3353:3 locus3354:3 locus3355:3 locus3356:3 locus3357:3 locus3358:3 locus3359:3 
locus3360:3 locus3361:3 locus3362:3 locus3363:3 locus3364:3 locus3365:3 locus3366:3 locus3367:3 locus3368:3 locus3369:3 
locus3370:3 locus3371:2 locus3372:3 locus3373:3 locus3374:3 locus3375:3 locus3376:3 locus3377:3 locus3378:3 locus3379:3 
locus3380:3 locus3381:3 locus3382:3 locus3383:3 locus3384:3 locus3385:3 locus3386:3 locus3387:3 locus3388:3 locus3389:3 
locus3390:3 locus3391:3 locus3392:3 locus3393:3 locus3394:3 locus3395:3 locus3396:3 locus3397:3 locus3398:3 locus3399:3 
locus3400:2 locus3401:3 locus3402:3 locus3403:3 locus3404:3 locus3405:3 locus3406:3 locus3407:3 locus3408:3 locus3409:3 
locus3410:3 locus3411:3 locus3412:3 locus3413:3 locus3414:3 locus3415:3 locus3416:3 locus3417:3 locus3418:3 locus3419:3 
locus3420:3 locus3421:3 locus3422:2 locus3423:3 locus3424:3 locus3425:3 locus3426:2 locus3427:3 locus3428:3 locus3429:3 
locus3430:3 locus3431:3 locus3432:3 locus3433:2 locus3434:2 locus3435:2 locus3436:3 locus3437:3 locus3438:3 locus3439:3 
locus3440:3 locus3441:3 locus3442:3 locus3443:3 locus3444:3 locus3445:3 locus3446:3 locus3447:2 locus3448:3 locus3449:3 
locus3450:3 locus3451:2 locus3452:3 locus3453:3 locus3454:3 locus3455:3 locus3456:3 locus3457:3 locus3458:3 locus3459:3 
locus3460:3 locus3461:3 locus3462:3 locus3463:3 locus3464:3 locus3465:3 locus3466:3 locus3467:3 locus3468:3 locus3469:3 
locus3470:3 locus3471:3 locus3472:3 locus3473:3 locus3474:3 locus3475:3 locus3476:3 locus3477:3 locus3478:3 locus3479:3 
locus3480:3 locus3481:3 locus3482:3 locus3483:3 locus3484:2 locus3485:3 locus3486:3 locus3487:3 locus3488:3 locus3489:3 
locus3490:3 locus3491:3 locus3492:3 locus3493:3 locus3494:3 locus3495:3 locus3496:3 locus3497:3 locus3498:3 locus3499:3 
locus3500:3 locus3501:3 locus3502:3 locus3503:3 locus3504:3 locus3505:2 locus3506:3 locus3507:3 locus3508:3 locus3509:3 
locus3510:3 locus3511:3 locus3512:3 locus3513:3 locus3514:3 locus3515:3 locus3516:2 locus3517:3 locus3518:3 locus3519:3 
locus3520:2 locus3521:3 locus3522:3 locus3523:3 locus3524:3 locus3525:3 locus3526:3 locus3527:3 locus3528:2 locus3529:3 
locus3530:3 locus3531:3 locus3532:3 locus3533:3 locus3534:2 locus3535:3 locus3536:3 locus3537:3 locus3538:2 locus3539:3 
locus3540:3 locus3541:3 locus3542:3 locus3543:3 locus3544:3 locus3545:3 locus3546:3 locus3547:3 locus3548:3 locus3549:3 
locus3550:3 locus3551:2 locus3552:3 locus3553:3 locus3554:3 locus3555:3 locus3556:3 locus3557:3 locus3558:3 locus3559:3 
locus3560:2 locus3561:3 locus3562:3 locus3563:3 locus3564:3 locus3565:3 locus3566:3 locus3567:3 locus3568:3 locus3569:3 
locus3570:3 locus3571:3 locus3572:2 locus3573:3 locus3574:3 locus3575:3 locus3576:2 locus3577:2 locus3578:3 locus3579:3 
locus3580:3 locus3581:3 locus3582:3 locus3583:3 locus3584:3 locus3585:3 locus3586:2 locus3587:3 locus3588:3 locus3589:3 
locus3590:3 locus3591:3 locus3592:3 locus3593:3 locus3594:3 locus3595:3 locus3596:3 locus3597:3 locus3598:3 locus3599:3 
locus3600:3 locus3601:3 locus3602:3 locus3603:3 locus3604:3 locus3605:2 locus3606:2 locus3607:3 locus3608:3 locus3609:3 
locus3610:2 locus3611:3 locus3612:3 locus3613:3 locus3614:3 locus3615:3 locus3616:3 locus3617:2 locus3618:3 locus3619:3 
locus3620:3 locus3621:3 locus3622:3 locus3623:3 locus3624:3 locus3625:3 locus3626:3 locus3627:3 locus3628:3 locus3629:2 
locus3630:3 locus3631:3 locus3632:3 locus3633:3 locus3634:3 locus3635:2 locus3636:3 locus3637:3 locus3638:3 locus3639:3 
locus3640:3 locus3641:3 locus3642:3 locus3643:3 locus3644:3 locus3645:3 locus3646:3 locus3647:3 locus3648:3 locus3649:2 
locus3650:3 locus3651:3 locus3652:3 locus3653:2 locus3654:3 locus3655:3 locus3656:3 locus3657:3 locus3658:3 locus3659:3 
locus3660:3 locus3661:3 locus3662:2 locus3663:3 locus3664:3 locus3665:3 locus3666:3 locus3667:3 locus3668:3 locus3669:3 
locus3670:3 locus3671:2 locus3672:3 locus3673:3 locus3674:3 locus3675:3 locus3676:2 locus3677:3 locus3678:3 locus3679:3 
locus3680:3 locus3681:3 locus3682:2 locus3683:3 locus3684:3 locus3685:3 locus3686:2 locus3687:2 locus3688:3 locus3689:3 
locus3690:3 locus3691:3 locus3692:2 locus3693:3 locus3694:3 locus3695:3 locus3696:3 locus3697:3 locus3698:3 locus3699:3 
locus3700:3 locus3701:3 locus3702:3 locus3703:3 locus3704:3 locus3705:3 locus3706:3 locus3707:3 locus3708:3 locus3709:3 
locus3710:3 locus3711:2 locus3712:3 locus3713:3 locus3714:3 locus3715:3 locus3716:3 locus3717:3 locus3718:3 locus3719:3 
locus3720:3 locus3721:3 locus3722:3 locus3723:3 locus3724:3 locus3725:3 locus3726:3 locus3727:3 locus3728:3 locus3729:3 
locus3730:3 locus3731:3 locus3732:3 locus3733:3 locus3734:3 locus3735:3 locus3736:2 locus3737:3 locus3738:3 locus3739:3 
locus3740:3 locus3741:3 locus3742:3 locus3743:3 locus3744:3 locus3745:3 locus3746:3 locus3747:3 locus3748:3 locus3749:3 
locus3750:3 locus3751:3 locus3752:3 locus3753:3 locus3754:3 locus3755:3 locus3756:3 locus3757:3 locus3758:3 locus3759:3 
locus3760:3 locus3761:3 locus3762:3 locus3763:3 locus3764:3 locus3765:3 locus3766:3 locus3767:2 locus3768:3 locus3769:3 
locus3770:3 locus3771:3 locus3772:3 locus3773:3 locus3774:3 locus3775:3 locus3776:2 locus3777:3 locus3778:3 locus3779:3 
locus3780:3 locus3781:3 locus3782:3 locus3783:3 locus3784:3 locus3785:3 locus3786:3 locus3787:3 locus3788:3 locus3789:3 
locus3790:3 locus3791:3 locus3792:2 locus3793:3 locus3794:3 locus3795:3 locus3796:3 locus3797:3 locus3798:3 locus3799:3 
locus3800:3 locus3801:3 locus3802:3 locus3803:3 locus3804:3 locus3805:3 locus3806:3 locus3807:2 locus3808:3 locus3809:3 
locus3810:3 locus3811:3 locus3812:3 locus3813:3 locus3814:3 locus3815:3 locus3816:3 locus3817:3 locus3818:3 locus3819:3 
locus3820:3 locus3821:2 locus3822:3 locus3823:3 locus3824:3 locus3825:3 locus3826:3 locus3827:3 locus3828:3 locus3829:3 
locus3830:3 locus3831:3 locus3832:3 locus3833:3 locus3834:3 locus3835:3 locus3836:3 locus3837:3 locus3838:3 locus3839:3 
locus3840:3 locus3841:3 locus3842:3 locus3843:3 locus3844:3 locus3845:3 locus3846:3 locus3847:3 locus3848:3 locus3849:3 
locus3850:3 locus3851:2 locus3852:3 locus3853:3 locus3854:3 locus3855:3 locus3856:3 locus3857:3 locus3858:3 locus3859:2 
locus3860:3 locus3861:3 locus3862:3 locus3863:3 locus3864:3 locus3865:3 locus3866:3 locus3867:3 locus3868:3 locus3869:3 
locus3870:3 locus3871:3 locus3872:3 locus3873:3 locus3874:2 locus3875:3 locus3876:3 locus3877:3 locus3878:3 locus3879:3 
locus3880:3 locus3881:3 locus3882:3 locus3883:3 locus3884:3 locus3885:3 locus3886:3 locus3887:3 locus3888:2 locus3889:3 
locus3890:3 locus3891:2 locus3892:3 locus3893:3 locus3894:3 locus3895:3 locus3896:3 locus3897:3 locus3898:3 locus3899:3 
locus3900:3 locus3901:3 locus3902:3 locus3903:3 locus3904:3 locus3905:3 locus3906:3 locus3907:3 locus3908:2 locus3909:3 
locus3910:3 locus3911:3 locus3912:2 locus3913:3 locus3914:3 locus3915:3 locus3916:3 locus3917:3 locus3918:3 locus3919:3 
locus3920:3 locus3921:3 locus3922:3 locus3923:3 locus3924:2 locus3925:3 locus3926:3 locus3927:3 locus3928:3 locus3929:3 
locus3930:3 locus3931:3 locus3932:3 locus3933:3 locus3934:3 locus3935:2 locus3936:3 locus3937:3 locus3938:3 locus3939:3 
locus3940:3 locus3941:3 locus3942:3 locus3943:3 locus3944:3 locus3945:3 locus3946:3 locus3947:3 locus3948:3 locus3949:3 
locus3950:3 locus3951:3 locus3952:3 locus3953:3 locus3954:3 locus3955:3 locus3956:3 locus3957:3 locus3958:3 locus3959:3 
locus3960:3 locus3961:3 locus3962:3 locus3963:3 locus3964:3 locus3965:3 locus3966:3 locus3967:3 locus3968:3 locus3969:3 
locus3970:3 locus3971:3 locus3972:3 locus3973:3 locus3974:3 locus3975:3 locus3976:3 locus3977:3 locus3978:3 locus3979:3 
locus3980:2 locus3981:3 locus3982:3 locus3983:3 locus3984:2 locus3985:3 locus3986:3 locus3987:3 locus3988:3 locus3989:3 
locus3990:3 locus3991:3 locus3992:3 locus3993:3 locus3994:3 locus3995:3 locus3996:3 locus3997:3 locus3998:3 locus3999:2 
locus4000:3 locus4001:3 locus4002:3 locus4003:3 locus4004:3 locus4005:3 locus4006:3 locus4007:3 locus4008:3 locus4009:3 
locus4010:3 locus4011:3 locus4012:3 locus4013:3 locus4014:3 locus4015:3 locus4016:3 locus4017:3 locus4018:3 locus4019:3 
locus4020:3 locus4021:3 locus4022:3 locus4023:3 locus4024:3 locus4025:3 locus4026:3 locus4027:3 locus4028:3 locus4029:3 
locus4030:2 locus4031:3 locus4032:3 locus4033:3 locus4034:3 locus4035:3 locus4036:3 locus4037:3 locus4038:3 locus4039:3 
locus4040:3 locus4041:3 locus4042:3 locus4043:3 locus4044:2 locus4045:3 locus4046:3 locus4047:3 locus4048:3 locus4049:3 
locus4050:3 locus4051:3 locus4052:2 locus4053:3 locus4054:3 locus4055:3 locus4056:3 locus4057:3 locus4058:3 locus4059:3 
locus4060:2 locus4061:3 locus4062:3 locus4063:3 locus4064:3 locus4065:3 locus4066:2 locus4067:3 locus4068:3 locus4069:3 
locus4070:3 locus4071:3 locus4072:3 locus4073:3 locus4074:3 locus4075:3 locus4076:3 locus4077:2 locus4078:3 locus4079:3 
locus4080:3 locus4081:3 locus4082:3 locus4083:3 locus4084:3 locus4085:3 locus4086:3 locus4087:3 locus4088:3 locus4089:3 
locus4090:3 locus4091:3 locus4092:2 locus4093:3 locus4094:3 locus4095:3 locus4096:3 locus4097:3 locus4098:3 locus4099:3 
locus4100:2 locus4101:3 locus4102:3 locus4103:3 locus4104:3 locus4105:3 locus4106:3 locus4107:3 locus4108:3 locus4109:3 
locus4110:3 locus4111:3 locus4112:3 locus4113:3 locus4114:3 locus4115:3 locus4116:3 locus4117:3 locus4118:3 locus4119:3 
locus4120:3 locus4121:3 locus4122:3 locus4123:3 locus4124:3 locus4125:3 locus4126:3 locus4127:3 locus4128:2 locus4129:3 
locus4130:3 locus4131:3 locus4132:3 locus4133:3 locus4134:3 locus4135:3 locus4136:3 locus4137:3 locus4138:3 locus4139:3 
locus4140:3 locus4141:3 locus4142:3 locus4143:3 locus4144:3 locus4145:3 locus4146:3 locus4147:3 locus4148:3 locus4149:3 
locus4150:2 locus4151:3 locus4152:3 locus4153:2 locus4154:3 locus4155:2 locus4156:3 locus4157:3 locus4158:3 locus4159:3 
locus4160:3 locus4161:3 locus4162:3 locus4163:3 locus4164:3 locus4165:3 locus4166:3 locus4167:3 locus4168:3 locus4169:3 
locus4170:3 locus4171:3 locus4172:3 locus4173:3 locus4174:3 locus4175:3 locus4176:3 locus4177:3 locus4178:3 locus4179:3 
locus4180:3 locus4181:2 locus4182:3 locus4183:3 locus4184:3 locus4185:3 locus4186:3 locus4187:3 locus4188:3 locus4189:3 
locus4190:3 locus4191:2 locus4192:3 locus4193:3 locus4194:3 locus4195:3 locus4196:3 locus4197:3 locus4198:3 locus4199:3 
locus4200:3 locus4201:3 locus4202:3 locus4203:3 locus4204:3 locus4205:3 locus4206:3 locus4207:3 locus4208:3 locus4209:3 
locus4210:3 locus4211:3 locus4212:3 locus4213:3 locus4214:3 locus4215:3 locus4216:2 locus4217:3 locus4218:3 locus4219:3 
locus4220:3 locus4221:3 locus4222:3 locus4223:3 locus4224:3 locus4225:3 locus4226:3 locus4227:3 locus4228:3 locus4229:3 
locus4230:3 locus4231:3 locus4232:2 locus4233:3 locus4234:3 locus4235:3 locus4236:3 locus4237:3 locus4238:3 locus4239:3 
locus4240:3 locus4241:3 locus4242:3 locus4243:3 locus4244:2 locus4245:3 locus4246:3 locus4247:3 locus4248:3 locus4249:3 
locus4250:2 locus4251:3 locus4252:3 locus4253:3 locus4254:3 locus4255:3 locus4256:3 locus4257:3 locus4258:3 locus4259:3 
locus4260:3 locus4261:3 locus4262:3 locus4263:2 locus4264:3 locus4265:3 locus4266:3 locus4267:3 locus4268:3 locus4269:2 
locus4270:3 locus4271:3 locus4272:3 locus4273:3 locus4274:3 locus4275:2 locus4276:2 locus4277:3 locus4278:3 locus4279:3 
locus4280:3 locus4281:3 locus4282:3 locus4283:3 locus4284:3 locus4285:3 locus4286:3 locus4287:3 locus4288:3 locus4289:2 
locus4290:3 locus4291:3 locus4292:3 locus4293:2 locus4294:3 locus4295:3 locus4296:3 locus4297:3 locus4298:3 locus4299:3 
locus4300:3 locus4301:3 locus4302:3 locus4303:3 locus4304:3 locus4305:3 locus4306:3 locus4307:3 locus4308:3 locus4309:3 
locus4310:3 locus4311:2 locus4312:3 locus4313:3 locus4314:3 locus4315:3 locus4316:3 locus4317:3 locus4318:3 locus4319:2 
locus4320:3 locus4321:3 locus4322:3 locus4323:3 locus4324:3 locus4325:3 locus4326:3 locus4327:3 locus4328:3 locus4329:3 
locus4330:3 locus4331:3 locus4332:3 locus4333:3 locus4334:3 locus4335:3 locus4336:3 locus4337:3 locus4338:3 locus4339:3 
locus4340:3 locus4341:3 locus4342:3 locus4343:3 locus4344:3 locus4345:3 locus4346:3 locus4347:3 locus4348:3 locus4349:3 
locus4350:2 locus4351:3 locus4352:3 locus4353:3 locus4354:3 locus4355:3 locus4356:3 locus4357:3 locus4358:3 locus4359:3 
locus4360:3 locus4361:3 locus4362:3 locus4363:3 locus4364:3 locus4365:3 locus4366:3 locus4367:3 locus4368:3 locus4369:3 
locus4370:3 locus4371:3 locus4372:3 locus4373:2 locus4374:3 locus4375:3 locus4376:3 locus4377:3 locus4378:3 locus4379:2 
locus4380:3 locus4381:3 locus4382:3 locus4383:3 locus4384:3 locus4385:3 locus4386:3 locus4387:2 locus4388:3 locus4389:3 
locus4390:2 locus4391:3 locus4392:3 locus4393:3 locus4394:3 locus4395:3 locus4396:3 locus4397:3 locus4398:3 locus4399:3 
locus4400:3 locus4401:3 locus4402:3 locus4403:3 locus4404:3 locus4405:3 locus4406:3 locus4407:3 locus4408:3 locus4409:3 
locus4410:3 locus4411:3 locus4412:3 locus4413:3 locus4414:3 locus4415:2 locus4416:3 locus4417:3 locus4418:3 locus4419:3 
locus4420:3 locus4421:3 locus4422:3 locus4423:3 locus4424:3 locus4425:3 locus4426:3 locus4427:3 locus4428:3 locus4429:3 
locus4430:3 locus4431:3 locus4432:3 locus4433:3 locus4434:3 locus4435:3 locus4436:2 locus4437:3 locus4438:3 locus4439:3 
locus4440:2 locus4441:2 locus4442:2 locus4443:3 locus4444:3 locus4445:3 locus4446:2 locus4447:3 locus4448:3 locus4449:3 
locus4450:3 locus4451:3 locus4452:3 locus4453:3 locus4454:3 locus4455:3 locus4456:3 locus4457:3 locus4458:3 locus4459:3 
locus4460:3 locus4461:3 locus4462:3 locus4463:3 locus4464:3 locus4465:3 locus4466:3 locus4467:3 locus4468:3 locus4469:3 
locus4470:3 locus4471:3 locus4472:3 locus4473:3 locus4474:3 locus4475:3 locus4476:3 locus4477:3 locus4478:3 locus4479:3 
locus4480:3 locus4481:3 locus4482:2 locus4483:3 locus4484:3 locus4485:3 locus4486:3 locus4487:3 locus4488:3 locus4489:3 
locus4490:3 locus4491:3 locus4492:3 locus4493:3 locus4494:3 locus4495:3 locus4496:3 locus4497:3 locus4498:3 locus4499:3 
locus4500:3 locus4501:3 locus4502:3 locus4503:3 locus4504:3 locus4505:3 locus4506:2 locus4507:3 locus4508:3 locus4509:3 
locus4510:3 locus4511:3 locus4512:2 locus4513:3 locus4514:3 locus4515:3 locus4516:3 locus4517:3 locus4518:3 locus4519:3 
locus4520:3 locus4521:3 locus4522:2 locus4523:3 locus4524:3 locus4525:3 locus4526:3 locus4527:3 locus4528:3 locus4529:3 
locus4530:3 locus4531:3 locus4532:3 locus4533:3 locus4534:3 locus4535:3 locus4536:3 locus4537:3 locus4538:3 locus4539:3 
locus4540:3 locus4541:3 locus4542:2 locus4543:3 locus4544:3 locus4545:2 locus4546:3 locus4547:3 locus4548:3 locus4549:3 
locus4550:3 locus4551:3 locus4552:3 locus4553:3 locus4554:3 locus4555:3 locus4556:3 locus4557:3 locus4558:3 locus4559:2 
locus4560:3 locus4561:3 locus4562:3 locus4563:3 locus4564:3 locus4565:3 locus4566:3 locus4567:3 locus4568:2 locus4569:3 
locus4570:3 locus4571:3 locus4572:3 locus4573:2 locus4574:3 locus4575:3 locus4576:3 locus4577:2 locus4578:2 locus4579:2 
locus4580:3 locus4581:3 locus4582:3 locus4583:3 locus4584:3 locus4585:3 locus4586:3 locus4587:3 locus4588:3 locus4589:3 
locus4590:3 locus4591:3 locus4592:3 locus4593:3 locus4594:3 locus4595:3 locus4596:3 locus4597:3 locus4598:3 locus4599:3 
locus4600:3 locus4601:3 locus4602:3 locus4603:3 locus4604:3 locus4605:3 locus4606:3 locus4607:3 locus4608:3 locus4609:3 
locus4610:2 locus4611:3 locus4612:2 locus4613:3 locus4614:3 locus4615:3 locus4616:2 locus4617:3 locus4618:3 locus4619:3 
locus4620:3 locus4621:2 locus4622:3 locus4623:3 locus4624:3 locus4625:3 locus4626:3 locus4627:3 locus4628:3 locus4629:3 
locus4630:3 locus4631:3 locus4632:2 locus4633:2 locus4634:3 locus4635:2 locus4636:3 locus4637:3 locus4638:3 locus4639:3 
locus4640:3 locus4641:3 locus4642:3 locus4643:3 locus4644:3 locus4645:3 locus4646:3 locus4647:3 locus4648:3 locus4649:3 
locus4650:3 locus4651:3 locus4652:3 locus4653:3 locus4654:3 locus4655:2 locus4656:3 locus4657:3 locus4658:3 locus4659:3 
locus4660:3 locus4661:3 locus4662:3 locus4663:3 locus4664:3 locus4665:3 locus4666:3 locus4667:3 locus4668:3 locus4669:3 
locus4670:3 locus4671:3 locus4672:3 locus4673:3 locus4674:3 locus4675:2 locus4676:3 locus4677:3 locus4678:3 locus4679:3 
locus4680:3 locus4681:3 locus4682:3 locus4683:3 locus4684:3 locus4685:3 locus4686:3 locus4687:3 locus4688:3 locus4689:3 
locus4690:3 locus4691:3 locus4692:3 locus4693:3 locus4694:3 locus4695:3 locus4696:3 locus4697:3 locus4698:3 locus4699:3 
locus4700:3 locus4701:2 locus4702:3 locus4703:3 locus4704:3 locus4705:3 locus4706:2 locus4707:3 locus4708:3 locus4709:2 
locus4710:2 locus4711:3 locus4712:3 locus4713:3 locus4714:3 locus4715:3 locus4716:3 locus4717:3 locus4718:3 locus4719:3 
locus4720:3 locus4721:3 locus4722:3 locus4723:3 locus4724:3 locus4725:3 locus4726:3 locus4727:3 locus4728:3 locus4729:3 
locus4730:3 locus4731:3 locus4732:3 locus4733:3 locus4734:3 locus4735:3 locus4736:3 locus4737:3 locus4738:3 locus4739:3 
locus4740:2 locus4741:3 locus4742:3 locus4743:3 locus4744:2 locus4745:3 locus4746:3 locus4747:3 locus4748:3 locus4749:3 
locus4750:3 locus4751:3 locus4752:3 locus4753:3 locus4754:3 locus4755:3 locus4756:3 locus4757:3 locus4758:3 locus4759:3 
locus4760:2 locus4761:3 locus4762:3 locus4763:3 locus4764:3 locus4765:3 locus4766:3 locus4767:3 locus4768:3 locus4769:3 
locus4770:3 locus4771:2 locus4772:3 locus4773:3 locus4774:3 locus4775:3 locus4776:3 locus4777:3 locus4778:3 locus4779:3 
locus4780:3 locus4781:3 locus4782:3 locus4783:3 locus4784:3 locus4785:3 locus4786:3 locus4787:3 locus4788:3 locus4789:3 
locus4790:3 locus4791:3 locus4792:3 locus4793:3 locus4794:3 locus4795:3 locus4796:3 locus4797:3 locus4798:3 locus4799:3 
locus4800:3 locus4801:3 locus4802:3 locus4803:2 locus4804:3 locus4805:3 locus4806:3 locus4807:3 locus4808:3 locus4809:3 
locus4810:3 locus4811:3 locus4812:3 locus4813:3 locus4814:3 locus4815:3 locus4816:3 locus4817:3 locus4818:3 locus4819:3 
locus4820:3 locus4821:3 locus4822:3 locus4823:3 locus4824:3 locus4825:3 locus4826:3 locus4827:3 locus4828:3 locus4829:3 
locus4830:2 locus4831:3 locus4832:3 locus4833:3 locus4834:3 locus4835:3 locus4836:3 locus4837:3 locus4838:3 locus4839:3 

logP(M): -476.27 logL(G): -573896.15 logL: -574372.42 % done: [0.00] % accepted: (0.32, 0.00, 0.35, 0.43, 0.00)logP(M): -454.54 logL(G): -575368.96 logL: -575823.50 % done: [0.00] % accepted: (0.32, 0.00, 0.36, 0.43, 0.00)logP(M): -445.70 logL(G): -576779.62 logL: -577225.31 % done: [0.00] % accepted: (0.32, 0.00, 0.36, 0.42, 0.00)logP(M): -470.36 logL(G): -578132.66 logL: -578603.02 % done: [0.00] % accepted: (0.32, 0.00, 0.36, 0.43, 0.00)logP(M): -447.91 logL(G): -579531.22 logL: -579979.12 % done: [0.01] % accepted: (0.32, 0.00, 0.37, 0.43, 0.00)logP(M): -458.40 logL(G): -580777.67 logL: -581236.07 % done: [0.01] % accepted: (0.32, 0.00, 0.37, 0.43, 0.00)logP(M): -458.70 logL(G): -582016.01 logL: -582474.71 % done: [0.01] % accepted: (0.32, 0.00, 0.37, 0.43, 0.00)logP(M): -440.56 logL(G): -583114.41 logL: -583554.97 % done: [0.01] % accepted: (0.32, 0.00, 0.37, 0.42, 0.00)logP(M): -459.40 logL(G): -584292.78 logL: -584752.18 % done: [0.01] % accepted: (0.32, 0.00, 0.37, 0.42, 0.00)logP(M): -448.95 logL(G): -585419.21 logL: -585868.15 % done: [0.01] % accepted: (0.32, 0.00, 0.37, 0.42, 0.00)logP(M): -447.91 logL(G): -586533.73 logL: -586981.64 % done: [0.01] % accepted: (0.32, 0.00, 0.37, 0.42, 0.00)logP(M): -460.50 logL(G): -587599.81 logL: -588060.32 % done: [0.01] % accepted: (0.32, 0.00, 0.37, 0.42, 0.00)logP(M): -454.88 logL(G): -588618.64 logL: -589073.53 % done: [0.01] % accepted: (0.32, 0.00, 0.37, 0.42, 0.00)logP(M): -441.84 logL(G): -589602.80 logL: -590044.64 % done: [0.01] % accepted: (0.32, 0.00, 0.37, 0.42, 0.00)logP(M): -450.76 logL(G): -590620.17 logL: -591070.93 % done: [0.01] % accepted: (0.32, 0.00, 0.38, 0.42, 0.00)logP(M): -451.56 logL(G): -591585.42 logL: -592036.98 % done: [0.02] % accepted: (0.32, 0.00, 0.38, 0.42, 0.00)logP(M): -453.38 logL(G): -592568.01 logL: -593021.39 % done: [0.02] % accepted: (0.32, 0.00, 0.38, 0.42, 0.00)logP(M): -445.24 logL(G): -593527.09 logL: -593972.33 % done: [0.02] % accepted: (0.32, 0.00, 0.38, 0.42, 0.00)logP(M): -453.11 logL(G): -594431.57 logL: -594884.69 % done: [0.02] % accepted: (0.32, 0.00, 0.38, 0.42, 0.00)logP(M): -463.56 logL(G): -595360.50 logL: -595824.06 % done: [0.02] % accepted: (0.32, 0.00, 0.38, 0.42, 0.00)logP(M): -459.47 logL(G): -596202.15 logL: -596661.61 % done: [0.02] % accepted: (0.32, 0.00, 0.38, 0.42, 0.00)logP(M): -437.40 logL(G): -597094.41 logL: -597531.81 % done: [0.02] % accepted: (0.32, 0.00, 0.38, 0.42, 0.00)logP(M): -444.14 logL(G): -597943.62 logL: -598387.76 % done: [0.02] % accepted: (0.32, 0.00, 0.38, 0.42, 0.00)logP(M): -455.62 logL(G): -598786.84 logL: -599242.45 % done: [0.02] % accepted: (0.32, 0.00, 0.38, 0.42, 0.00)logP(M): -448.10 logL(G): -599633.51 logL: -600081.60 % done: [0.03] % accepted: (0.32, 0.00, 0.39, 0.42, 0.00)logP(M): -457.70 logL(G): -600466.20 logL: -600923.90 % done: [0.03] % accepted: (0.32, 0.00, 0.39, 0.42, 0.00)logP(M): -457.86 logL(G): -601174.00 logL: -601631.86 % done: [0.03] % accepted: (0.32, 0.00, 0.39, 0.42, 0.00)logP(M): -440.29 logL(G): -601949.23 logL: -602389.52 % done: [0.03] % accepted: (0.32, 0.00, 0.39, 0.42, 0.00)logP(M): -458.82 logL(G): -602629.40 logL: -603088.22 % done: [0.03] % accepted: (0.32, 0.00, 0.39, 0.42, 0.00)logP(M): -445.43 logL(G): -603356.92 logL: -603802.35 % done: [0.03] % accepted: (0.32, 0.00, 0.39, 0.42, 0.00)logP(M): -439.95 logL(G): -603975.53 logL: -604415.48 % done: [0.03] % accepted: (0.32, 0.00, 0.39, 0.41, 0.00)logP(M): -469.56 logL(G): -604657.21 logL: -605126.77 % done: [0.03] % accepted: (0.32, 0.00, 0.39, 0.41, 0.00)logP(M): -445.68 logL(G): -605304.16 logL: -605749.84 % done: [0.03] % accepted: (0.32, 0.00, 0.39, 0.41, 0.00)logP(M): -461.43 logL(G): -605885.36 logL: -606346.80 % done: [0.03] % accepted: (0.32, 0.00, 0.39, 0.41, 0.00)logP(M): -459.04 logL(G): -606523.08 logL: -606982.12 % done: [0.04] % accepted: (0.32, 0.00, 0.39, 0.41, 0.00)logP(M): -454.20 logL(G): -607202.71 logL: -607656.91 % done: [0.04] % accepted: (0.32, 0.00, 0.39, 0.41, 0.00)logP(M): -443.64 logL(G): -607818.52 logL: -608262.17 % done: [0.04] % accepted: (0.32, 0.00, 0.39, 0.41, 0.00)logP(M): -454.78 logL(G): -608320.96 logL: -608775.73 % done: [0.04] % accepted: (0.32, 0.00, 0.39, 0.41, 0.00)logP(M): -447.61 logL(G): -608875.09 logL: -609322.70 % done: [0.04] % accepted: (0.32, 0.00, 0.39, 0.41, 0.00)logP(M): -455.18 logL(G): -609386.17 logL: -609841.36 % done: [0.04] % accepted: (0.32, 0.00, 0.39, 0.41, 0.00)logP(M): -461.77 logL(G): -609831.00 logL: -610292.76 % done: [0.04] % accepted: (0.32, 0.00, 0.40, 0.41, 0.00)logP(M): -441.95 logL(G): -610400.90 logL: -610842.85 % done: [0.04] % accepted: (0.32, 0.00, 0.40, 0.41, 0.00)logP(M): -454.60 logL(G): -610865.52 logL: -611320.12 % done: [0.04] % accepted: (0.32, 0.00, 0.40, 0.41, 0.00)logP(M): -453.21 logL(G): -611345.07 logL: -611798.28 % done: [0.04] % accepted: (0.32, 0.00, 0.40, 0.41, 0.00)logP(M): -478.79 logL(G): -611785.52 logL: -612264.32 % done: [0.04] % accepted: (0.32, 0.00, 0.40, 0.41, 0.00)logP(M): -456.60 logL(G): -612322.82 logL: -612779.42 % done: [0.05] % accepted: (0.32, 0.00, 0.40, 0.41, 0.00)logP(M): -457.79 logL(G): -612831.55 logL: -613289.34 % done: [0.05] % accepted: (0.32, 0.00, 0.40, 0.41, 0.00)logP(M): -452.78 logL(G): -613267.09 logL: -613719.87 % done: [0.05] % accepted: (0.32, 0.00, 0.40, 0.41, 0.00)logP(M): -458.73 logL(G): -613698.29 logL: -614157.02 % done: [0.05] % accepted: (0.32, 0.00, 0.40, 0.41, 0.00)logP(M): -461.61 logL(G): -614048.49 logL: -614510.10 % done: [0.05] % accepted: (0.32, 0.00, 0.40, 0.41, 0.00)logP(M): -463.87 logL(G): -614416.75 logL: -614880.61 % done: [0.05] % accepted: (0.32, 0.00, 0.40, 0.41, 0.00)logP(M): -447.10 logL(G): -614790.55 logL: -615237.65 % done: [0.05] % accepted: (0.32, 0.00, 0.40, 0.41, 0.00)logP(M): -478.00 logL(G): -615116.07 logL: -615594.07 % done: [0.05] % accepted: (0.32, 0.00, 0.40, 0.41, 0.00)logP(M): -458.73 logL(G): -615475.08 logL: -615933.81 % done: [0.05] % accepted: (0.32, 0.00, 0.40, 0.41, 0.00)logP(M): -464.44 logL(G): -615841.05 logL: -616305.49 % done: [0.06] % accepted: (0.32, 0.00, 0.40, 0.41, 0.00)logP(M): -466.99 logL(G): -616177.81 logL: -616644.80 % done: [0.06] % accepted: (0.32, 0.00, 0.40, 0.41, 0.00)logP(M): -462.02 logL(G): -616517.91 logL: -616979.93 % done: [0.06] % accepted: (0.32, 0.00, 0.40, 0.41, 0.00)logP(M): -458.47 logL(G): -616790.09 logL: -617248.56 % done: [0.06] % accepted: (0.32, 0.00, 0.40, 0.41, 0.00)logP(M): -464.62 logL(G): -616999.51 logL: -617464.13 % done: [0.06] % accepted: (0.32, 0.00, 0.40, 0.41, 0.00)logP(M): -452.63 logL(G): -617199.52 logL: -617652.15 % done: [0.06] % accepted: (0.33, 0.00, 0.41, 0.41, 0.00)logP(M): -458.85 logL(G): -617491.86 logL: -617950.72 % done: [0.06] % accepted: (0.33, 0.00, 0.41, 0.41, 0.00)logP(M): -469.28 logL(G): -617778.12 logL: -618247.40 % done: [0.06] % accepted: (0.33, 0.00, 0.41, 0.41, 0.00)logP(M): -474.75 logL(G): -617998.74 logL: -618473.49 % done: [0.06] % accepted: (0.33, 0.00, 0.41, 0.41, 0.00)logP(M): -456.99 logL(G): -618316.00 logL: -618772.99 % done: [0.06] % accepted: (0.33, 0.00, 0.41, 0.41, 0.00)logP(M): -459.43 logL(G): -618411.96 logL: -618871.40 % done: [0.07] % accepted: (0.33, 0.00, 0.41, 0.41, 0.00)logP(M): -490.26 logL(G): -618578.10 logL: -619068.35 % done: [0.07] % accepted: (0.33, 0.00, 0.41, 0.41, 0.00)logP(M): -456.95 logL(G): -618795.41 logL: -619252.36 % done: [0.07] % accepted: (0.33, 0.00, 0.41, 0.41, 0.00)logP(M): -467.57 logL(G): -618965.72 logL: -619433.29 % done: [0.07] % accepted: (0.33, 0.00, 0.41, 0.41, 0.00)logP(M): -458.98 logL(G): -619120.65 logL: -619579.63 % done: [0.07] % accepted: (0.33, 0.00, 0.41, 0.41, 0.00)logP(M): -478.52 logL(G): -619333.87 logL: -619812.39 % done: [0.07] % accepted: (0.33, 0.00, 0.41, 0.41, 0.00)logP(M): -467.83 logL(G): -619554.66 logL: -620022.49 % done: [0.07] % accepted: (0.33, 0.00, 0.41, 0.41, 0.00)logP(M): -463.83 logL(G): -619726.55 logL: -620190.38 % done: [0.07] % accepted: (0.34, 0.00, 0.42, 0.41, 0.00)logP(M): -467.47 logL(G): -619967.23 logL: -620434.70 % done: [0.07] % accepted: (0.34, 0.00, 0.42, 0.41, 0.00)logP(M): -470.11 logL(G): -620188.23 logL: -620658.35 % done: [0.07] % accepted: (0.34, 0.00, 0.42, 0.41, 0.00)logP(M): -460.13 logL(G): -620282.09 logL: -620742.23 % done: [0.07] % accepted: (0.34, 0.00, 0.42, 0.41, 0.00)logP(M): -469.96 logL(G): -620496.70 logL: -620966.66 % done: [0.08] % accepted: (0.34, 0.00, 0.42, 0.42, 0.00)logP(M): -460.05 logL(G): -620657.04 logL: -621117.09 % done: [0.08] % accepted: (0.34, 0.00, 0.42, 0.42, 0.00)logP(M): -467.90 logL(G): -620736.72 logL: -621204.62 % done: [0.08] % accepted: (0.34, 0.00, 0.42, 0.42, 0.00)logP(M): -446.51 logL(G): -620931.73 logL: -621378.24 % done: [0.08] % accepted: (0.34, 0.00, 0.42, 0.42, 0.00)logP(M): -468.85 logL(G): -621040.81 logL: -621509.66 % done: [0.08] % accepted: (0.34, 0.00, 0.42, 0.42, 0.00)logP(M): -472.38 logL(G): -621254.26 logL: -621726.64 % done: [0.08] % accepted: (0.34, 0.00, 0.42, 0.42, 0.00)logP(M): -462.59 logL(G): -621461.26 logL: -621923.86 % done: [0.08] % accepted: (0.34, 0.00, 0.42, 0.42, 0.00)logP(M): -455.38 logL(G): -621602.63 logL: -622058.01 % done: [0.08] % accepted: (0.34, 0.00, 0.42, 0.42, 0.00)logP(M): -468.08 logL(G): -621873.96 logL: -622342.04 % done: [0.08] % accepted: (0.34, 0.00, 0.42, 0.42, 0.00)logP(M): -469.62 logL(G): -621983.66 logL: -622453.28 % done: [0.09] % accepted: (0.34, 0.00, 0.42, 0.42, 0.00)logP(M): -471.24 logL(G): -622022.06 logL: -622493.30 % done: [0.09] % accepted: (0.34, 0.00, 0.42, 0.42, 0.00)logP(M): -465.10 logL(G): -622218.32 logL: -622683.42 % done: [0.09] % accepted: (0.34, 0.00, 0.42, 0.42, 0.00)logP(M): -453.51 logL(G): -622307.80 logL: -622761.31 % done: [0.09] % accepted: (0.35, 0.00, 0.43, 0.42, 0.00)logP(M): -468.09 logL(G): -622428.50 logL: -622896.59 % done: [0.09] % accepted: (0.35, 0.00, 0.43, 0.42, 0.00)logP(M): -460.07 logL(G): -622596.57 logL: -623056.65 % done: [0.09] % accepted: (0.35, 0.00, 0.43, 0.42, 0.00)logP(M): -476.32 logL(G): -622789.90 logL: -623266.21 % done: [0.09] % accepted: (0.35, 0.00, 0.43, 0.42, 0.00)logP(M): -461.91 logL(G): -622908.13 logL: -623370.05 % done: [0.09] % accepted: (0.35, 0.00, 0.43, 0.42, 0.00)logP(M): -479.07 logL(G): -623046.80 logL: -623525.87 % done: [0.09] % accepted: (0.35, 0.00, 0.43, 0.42, 0.00)logP(M): -470.99 logL(G): -623209.47 logL: -623680.46 % done: [0.09] % accepted: (0.35, 0.00, 0.43, 0.42, 0.00)logP(M): -474.85 logL(G): -623314.49 logL: -623789.34 % done: [0.10] % accepted: (0.35, 0.00, 0.43, 0.42, 0.00)logP(M): -466.38 logL(G): -623496.08 logL: -623962.46 % done: [0.10] % accepted: (0.35, 0.00, 0.43, 0.42, 0.00)logP(M): -453.21 logL(G): -623647.73 logL: -624100.94 % done: [0.10] % accepted: (0.35, 0.00, 0.43, 0.42, 0.00)logP(M): -470.11 logL(G): -623807.45 logL: -624277.57 % done: [0.10] % accepted: (0.35, 0.00, 0.43, 0.42, 0.00)logP(M): -453.96 logL(G): -623956.05 logL: -624410.01 % done: [0.10] % accepted: (0.35, 0.00, 0.43, 0.42, 0.00)logP(M): -461.00 logL(G): -624093.73 logL: -624554.73 % done: [0.10] % accepted: (0.35, 0.00, 0.43, 0.42, 0.00)logP(M): -461.00 logL(G): -624093.73 logL: -624554.73 % done: [0.10] % accepted: (0.35, 0.00, 0.43, 0.42, 0.00)
[...]
logP(M): -476.80 logL(G): -626495.35 logL: -626972.14 % done: (0.90) % accepted: (0.39, 0.00, 0.48, 0.44, 0.00)logP(M): -495.67 logL(G): -626550.06 logL: -627045.72 % done: (0.90) % accepted: (0.39, 0.00, 0.48, 0.44, 0.00)logP(M): -486.02 logL(G): -626567.56 logL: -627053.58 % done: (0.90) % accepted: (0.39, 0.00, 0.48, 0.44, 0.00)logP(M): -476.79 logL(G): -626578.64 logL: -627055.44 % done: (0.90) % accepted: (0.39, 0.00, 0.48, 0.44, 0.00)logP(M): -464.51 logL(G): -626529.26 logL: -626993.77 % done: (0.91) % accepted: (0.39, 0.00, 0.48, 0.44, 0.00)logP(M): -481.93 logL(G): -626460.10 logL: -626942.03 % done: (0.91) % accepted: (0.39, 0.00, 0.48, 0.44, 0.00)logP(M): -481.41 logL(G): -626417.02 logL: -626898.43 % done: (0.91) % accepted: (0.39, 0.00, 0.48, 0.44, 0.00)logP(M): -477.23 logL(G): -626359.15 logL: -626836.38 % done: (0.91) % accepted: (0.39, 0.00, 0.48, 0.44, 0.00)logP(M): -489.80 logL(G): -626415.24 logL: -626905.04 % done: (0.91) % accepted: (0.39, 0.00, 0.48, 0.44, 0.00)logP(M): -481.83 logL(G): -626433.52 logL: -626915.35 % done: (0.91) % accepted: (0.39, 0.00, 0.48, 0.44, 0.00)logP(M): -476.25 logL(G): -626401.19 logL: -626877.44 % done: (0.91) % accepted: (0.39, 0.00, 0.48, 0.44, 0.00)logP(M): -457.56 logL(G): -626398.59 logL: -626856.15 % done: (0.91) % accepted: (0.39, 0.00, 0.48, 0.44, 0.00)logP(M): -476.24 logL(G): -626406.91 logL: -626883.14 % done: (0.91) % accepted: (0.39, 0.00, 0.48, 0.44, 0.00)logP(M): -478.87 logL(G): -626363.45 logL: -626842.33 % done: (0.91) % accepted: (0.39, 0.00, 0.48, 0.44, 0.00)logP(M): -464.10 logL(G): -626399.88 logL: -626863.98 % done: (0.92) % accepted: (0.39, 0.00, 0.48, 0.44, 0.00)logP(M): -472.36 logL(G): -626445.25 logL: -626917.62 % done: (0.92) % accepted: (0.39, 0.00, 0.48, 0.44, 0.00)logP(M): -465.89 logL(G): -626459.75 logL: -626925.64 % done: (0.92) % accepted: (0.39, 0.00, 0.48, 0.44, 0.00)logP(M): -490.02 logL(G): -626482.63 logL: -626972.66 % done: (0.92) % accepted: (0.39, 0.00, 0.48, 0.44, 0.00)logP(M): -468.43 logL(G): -626570.32 logL: -627038.75 % done: (0.92) % accepted: (0.39, 0.00, 0.48, 0.44, 0.00)logP(M): -469.89 logL(G): -626557.34 logL: -627027.23 % done: (0.92) % accepted: (0.39, 0.00, 0.48, 0.44, 0.00)logP(M): -483.02 logL(G): -626398.23 logL: -626881.25 % done: (0.92) % accepted: (0.39, 0.00, 0.48, 0.44, 0.00)logP(M): -463.60 logL(G): -626344.62 logL: -626808.22 % done: (0.92) % accepted: (0.39, 0.00, 0.48, 0.44, 0.00)logP(M): -463.33 logL(G): -626417.72 logL: -626881.05 % done: (0.92) % accepted: (0.39, 0.00, 0.48, 0.44, 0.00)logP(M): -458.46 logL(G): -626342.38 logL: -626800.83 % done: (0.92) % accepted: (0.39, 0.00, 0.48, 0.44, 0.00)logP(M): -471.43 logL(G): -626375.26 logL: -626846.69 % done: (0.93) % accepted: (0.39, 0.00, 0.48, 0.44, 0.00)logP(M): -487.49 logL(G): -626361.76 logL: -626849.25 % done: (0.93) % accepted: (0.39, 0.00, 0.48, 0.44, 0.00)logP(M): -461.51 logL(G): -626393.64 logL: -626855.15 % done: (0.93) % accepted: (0.39, 0.00, 0.48, 0.44, 0.00)logP(M): -474.34 logL(G): -626316.20 logL: -626790.54 % done: (0.93) % accepted: (0.39, 0.00, 0.48, 0.44, 0.00)logP(M): -469.77 logL(G): -626398.11 logL: -626867.87 % done: (0.93) % accepted: (0.39, 0.00, 0.48, 0.44, 0.00)logP(M): -493.54 logL(G): -626536.11 logL: -627029.65 % done: (0.93) % accepted: (0.39, 0.00, 0.48, 0.44, 0.00)logP(M): -473.30 logL(G): -626494.43 logL: -626967.73 % done: (0.93) % accepted: (0.39, 0.00, 0.48, 0.44, 0.00)logP(M): -461.73 logL(G): -626565.19 logL: -627026.92 % done: (0.93) % accepted: (0.39, 0.00, 0.48, 0.44, 0.00)logP(M): -475.10 logL(G): -626535.30 logL: -627010.40 % done: (0.93) % accepted: (0.39, 0.00, 0.48, 0.44, 0.00)logP(M): -475.09 logL(G): -626601.14 logL: -627076.23 % done: (0.93) % accepted: (0.39, 0.00, 0.48, 0.44, 0.00)logP(M): -475.07 logL(G): -626667.95 logL: -627143.01 % done: (0.94) % accepted: (0.39, 0.00, 0.48, 0.44, 0.00)logP(M): -490.03 logL(G): -626725.65 logL: -627215.69 % done: (0.94) % accepted: (0.39, 0.00, 0.48, 0.44, 0.00)logP(M): -472.66 logL(G): -626726.14 logL: -627198.81 % done: (0.94) % accepted: (0.39, 0.00, 0.48, 0.44, 0.00)logP(M): -469.87 logL(G): -626764.89 logL: -627234.76 % done: (0.94) % accepted: (0.39, 0.00, 0.48, 0.44, 0.00)logP(M): -466.09 logL(G): -626870.24 logL: -627336.32 % done: (0.94) % accepted: (0.39, 0.00, 0.48, 0.44, 0.00)logP(M): -477.22 logL(G): -626833.82 logL: -627311.04 % done: (0.94) % accepted: (0.39, 0.00, 0.48, 0.44, 0.00)logP(M): -470.72 logL(G): -626881.53 logL: -627352.25 % done: (0.94) % accepted: (0.39, 0.00, 0.48, 0.44, 0.00)logP(M): -478.63 logL(G): -626904.95 logL: -627383.58 % done: (0.94) % accepted: (0.39, 0.00, 0.48, 0.44, 0.00)logP(M): -485.67 logL(G): -626816.72 logL: -627302.39 % done: (0.94) % accepted: (0.39, 0.00, 0.48, 0.44, 0.00)logP(M): -492.72 logL(G): -626794.90 logL: -627287.62 % done: (0.94) % accepted: (0.39, 0.00, 0.48, 0.44, 0.00)logP(M): -472.19 logL(G): -626822.02 logL: -627294.22 % done: (0.94) % accepted: (0.39, 0.00, 0.48, 0.44, 0.00)logP(M): -467.93 logL(G): -626931.74 logL: -627399.67 % done: (0.95) % accepted: (0.39, 0.00, 0.48, 0.44, 0.00)logP(M): -478.13 logL(G): -626904.54 logL: -627382.67 % done: (0.95) % accepted: (0.39, 0.00, 0.48, 0.44, 0.00)logP(M): -483.82 logL(G): -626984.58 logL: -627468.40 % done: (0.95) % accepted: (0.39, 0.00, 0.48, 0.44, 0.00)logP(M): -469.45 logL(G): -626970.32 logL: -627439.77 % done: (0.95) % accepted: (0.39, 0.00, 0.48, 0.44, 0.00)logP(M): -478.22 logL(G): -626873.52 logL: -627351.74 % done: (0.95) % accepted: (0.39, 0.00, 0.48, 0.44, 0.00)logP(M): -473.64 logL(G): -626929.52 logL: -627403.16 % done: (0.95) % accepted: (0.39, 0.00, 0.48, 0.44, 0.00)logP(M): -456.92 logL(G): -626975.56 logL: -627432.48 % done: (0.95) % accepted: (0.39, 0.00, 0.48, 0.44, 0.00)logP(M): -489.76 logL(G): -626916.89 logL: -627406.66 % done: (0.95) % accepted: (0.39, 0.00, 0.48, 0.44, 0.00)logP(M): -485.25 logL(G): -626865.65 logL: -627350.90 % done: (0.95) % accepted: (0.39, 0.00, 0.48, 0.44, 0.00)logP(M): -478.12 logL(G): -626916.32 logL: -627394.44 % done: (0.95) % accepted: (0.39, 0.00, 0.48, 0.44, 0.00)logP(M): -471.91 logL(G): -626889.87 logL: -627361.78 % done: (0.96) % accepted: (0.39, 0.00, 0.48, 0.44, 0.00)logP(M): -489.08 logL(G): -626868.23 logL: -627357.32 % done: (0.96) % accepted: (0.39, 0.00, 0.48, 0.44, 0.00)logP(M): -494.66 logL(G): -626725.47 logL: -627220.14 % done: (0.96) % accepted: (0.39, 0.00, 0.48, 0.44, 0.00)logP(M): -489.47 logL(G): -626658.32 logL: -627147.79 % done: (0.96) % accepted: (0.39, 0.00, 0.48, 0.44, 0.00)logP(M): -482.31 logL(G): -626755.54 logL: -627237.85 % done: (0.96) % accepted: (0.39, 0.00, 0.48, 0.44, 0.00)logP(M): -478.78 logL(G): -626780.34 logL: -627259.12 % done: (0.96) % accepted: (0.39, 0.00, 0.48, 0.44, 0.00)logP(M): -485.76 logL(G): -626742.94 logL: -627228.70 % done: (0.96) % accepted: (0.39, 0.00, 0.48, 0.44, 0.00)logP(M): -473.29 logL(G): -626814.59 logL: -627287.88 % done: (0.96) % accepted: (0.39, 0.00, 0.48, 0.44, 0.00)logP(M): -493.41 logL(G): -626808.18 logL: -627301.59 % done: (0.96) % accepted: (0.39, 0.00, 0.48, 0.44, 0.00)logP(M): -475.68 logL(G): -626851.29 logL: -627326.97 % done: (0.96) % accepted: (0.39, 0.00, 0.48, 0.44, 0.00)logP(M): -476.89 logL(G): -626760.04 logL: -627236.93 % done: (0.97) % accepted: (0.39, 0.00, 0.48, 0.44, 0.00)logP(M): -466.81 logL(G): -626658.01 logL: -627124.82 % done: (0.97) % accepted: (0.39, 0.00, 0.48, 0.44, 0.00)logP(M): -469.32 logL(G): -626660.55 logL: -627129.87 % done: (0.97) % accepted: (0.39, 0.00, 0.48, 0.44, 0.00)logP(M): -476.48 logL(G): -626593.97 logL: -627070.45 % done: (0.97) % accepted: (0.39, 0.00, 0.48, 0.44, 0.00)logP(M): -494.61 logL(G): -626652.73 logL: -627147.34 % done: (0.97) % accepted: (0.39, 0.00, 0.48, 0.44, 0.00)logP(M): -483.88 logL(G): -626613.00 logL: -627096.88 % done: (0.97) % accepted: (0.39, 0.00, 0.48, 0.44, 0.00)logP(M): -484.60 logL(G): -626624.09 logL: -627108.69 % done: (0.97) % accepted: (0.39, 0.00, 0.48, 0.44, 0.00)logP(M): -485.54 logL(G): -626623.85 logL: -627109.39 % done: (0.97) % accepted: (0.39, 0.00, 0.48, 0.44, 0.00)logP(M): -482.12 logL(G): -626670.42 logL: -627152.54 % done: (0.97) % accepted: (0.39, 0.00, 0.48, 0.44, 0.00)logP(M): -465.85 logL(G): -626663.17 logL: -627129.03 % done: (0.97) % accepted: (0.39, 0.00, 0.48, 0.44, 0.00)logP(M): -481.56 logL(G): -626508.69 logL: -626990.25 % done: (0.98) % accepted: (0.39, 0.00, 0.48, 0.44, 0.00)logP(M): -471.72 logL(G): -626446.49 logL: -626918.20 % done: (0.98) % accepted: (0.39, 0.00, 0.48, 0.44, 0.00)logP(M): -477.27 logL(G): -626362.84 logL: -626840.11 % done: (0.98) % accepted: (0.39, 0.00, 0.48, 0.44, 0.00)logP(M): -483.55 logL(G): -626459.53 logL: -626943.08 % done: (0.98) % accepted: (0.39, 0.00, 0.48, 0.44, 0.00)logP(M): -477.10 logL(G): -626496.95 logL: -626974.06 % done: (0.98) % accepted: (0.39, 0.00, 0.48, 0.44, 0.00)logP(M): -476.85 logL(G): -626541.35 logL: -627018.21 % done: (0.98) % accepted: (0.39, 0.00, 0.48, 0.44, 0.00)logP(M): -479.90 logL(G): -626541.61 logL: -627021.51 % done: (0.98) % accepted: (0.39, 0.00, 0.48, 0.44, 0.00)logP(M): -488.55 logL(G): -626561.11 logL: -627049.65 % done: (0.98) % accepted: (0.39, 0.00, 0.48, 0.44, 0.00)logP(M): -486.95 logL(G): -626541.43 logL: -627028.39 % done: (0.98) % accepted: (0.39, 0.00, 0.48, 0.44, 0.00)logP(M): -487.49 logL(G): -626608.57 logL: -627096.06 % done: (0.98) % accepted: (0.39, 0.00, 0.48, 0.44, 0.00)logP(M): -479.39 logL(G): -626556.79 logL: -627036.18 % done: (0.99) % accepted: (0.39, 0.00, 0.48, 0.44, 0.00)logP(M): -462.70 logL(G): -626534.83 logL: -626997.53 % done: (0.99) % accepted: (0.39, 0.00, 0.48, 0.44, 0.00)logP(M): -481.17 logL(G): -626456.12 logL: -626937.28 % done: (0.99) % accepted: (0.39, 0.00, 0.48, 0.44, 0.00)logP(M): -479.12 logL(G): -626524.51 logL: -627003.63 % done: (0.99) % accepted: (0.39, 0.00, 0.48, 0.44, 0.00)logP(M): -484.42 logL(G): -626565.91 logL: -627050.33 % done: (0.99) % accepted: (0.39, 0.00, 0.48, 0.44, 0.00)logP(M): -487.91 logL(G): -626511.55 logL: -626999.46 % done: (0.99) % accepted: (0.39, 0.00, 0.48, 0.44, 0.00)logP(M): -469.84 logL(G): -626559.15 logL: -627028.99 % done: (0.99) % accepted: (0.39, 0.00, 0.48, 0.44, 0.00)logP(M): -480.03 logL(G): -626491.65 logL: -626971.67 % done: (0.99) % accepted: (0.39, 0.00, 0.48, 0.44, 0.00)logP(M): -467.54 logL(G): -626545.61 logL: -627013.15 % done: (0.99) % accepted: (0.39, 0.00, 0.48, 0.44, 0.00)logP(M): -475.93 logL(G): -626533.93 logL: -627009.86 % done: (0.99) % accepted: (0.39, 0.00, 0.48, 0.44, 0.00)logP(M): -469.04 logL(G): -626593.25 logL: -627062.29 % done: (1.00) % accepted: (0.39, 0.00, 0.48, 0.44, 0.00)logP(M): -481.83 logL(G): -626537.85 logL: -627019.68 % done: (1.00) % accepted: (0.39, 0.00, 0.48, 0.44, 0.00)logP(M): -482.82 logL(G): -626480.91 logL: -626963.73 % done: (1.00) % accepted: (0.39, 0.00, 0.48, 0.44, 0.00)logP(M): -486.12 logL(G): -626456.05 logL: -626942.16 % done: (1.00) % accepted: (0.39, 0.00, 0.48, 0.44, 0.00)logP(M): -489.96 logL(G): -626503.37 logL: -626993.33 % done: (1.00) % accepted: (0.39, 0.00, 0.48, 0.44, 0.00)logP(M): -489.96 logL(G): -626503.37 logL: -626993.33 % done: (1.00) % accepted: (0.39, 0.00, 0.48, 0.44, 0.00)


 MCMC run completed. Output written to NMT_fullrun_out3

